PV-000117880948.****
 OpenBabel12172121453D
Hydescorer 1.1.2 b8048283
 48 50  0  0  0  0  0  0  0  0999 V2000
  -12.1141  -10.2795   -1.5508 C   0  0  0  0  0  0  0  0  0  0  0  0
  -11.5248  -11.3715   -0.9221 C   0  0  0  0  0  0  0  0  0  0  0  0
  -12.3108  -12.2993   -0.2230 C   0  0  0  0  0  0  0  0  0  0  0  0
  -13.6930  -12.0881   -0.1396 C   0  0  0  0  0  0  0  0  0  0  0  0
  -14.2800  -10.9961   -0.7674 C   0  0  0  0  0  0  0  0  0  0  0  0
  -13.4923  -10.0951   -1.4781 C   0  0  0  0  0  0  0  0  0  0  0  0
  -11.7105  -13.4735    0.4134 C   0  0  0  0  0  0  0  0  0  0  0  0
  -10.6269  -13.3854    1.2310 N   0  0  0  0  0  0  0  0  0  0  0  0
  -12.0803  -14.6170    0.2286 O   0  0  0  0  0  0  0  0  0  0  0  0
   -9.9950  -14.5403    1.8887 C   0  0  1  0  0  0  0  0  0  0  0  0
   -8.4710  -14.3361    1.9133 C   0  0  0  0  0  0  0  0  0  0  0  0
   -8.2255  -13.4272    3.0788 N   0  3  1  0  0  0  0  0  0  0  0  0
   -9.4900  -13.3211    3.8598 C   0  0  0  0  0  0  0  0  0  0  0  0
  -10.3378  -14.4959    3.3705 C   0  0  0  0  0  0  0  0  0  0  0  0
   -7.1747  -14.0311    3.9287 C   0  0  0  0  0  0  0  0  0  0  0  0
   -5.9082  -14.1697    3.0549 C   0  0  0  0  0  0  0  0  0  0  0  0
   -5.2446  -15.5453    3.2970 C   0  0  0  0  0  0  0  0  0  0  0  0
   -3.9117  -15.6478    2.5424 C   0  0  0  0  0  0  0  0  0  0  0  0
   -2.9620  -14.5089    2.9379 C   0  0  0  0  0  0  0  0  0  0  0  0
   -3.6171  -13.1414    2.7074 C   0  0  0  0  0  0  0  0  0  0  0  0
   -4.9472  -13.0375    3.4671 C   0  0  0  0  0  0  0  0  0  0  0  0
  -11.5480   -9.6271   -2.0548 H   0  0  0  0  0  0  0  0  0  0  0  0
  -10.5337  -11.4959   -0.9689 H   0  0  0  0  0  0  0  0  0  0  0  0
  -14.2622  -12.7286    0.3761 H   0  0  0  0  0  0  0  0  0  0  0  0
  -15.2686  -10.8577   -0.7086 H   0  0  0  0  0  0  0  0  0  0  0  0
  -13.9166   -9.3145   -1.9370 H   0  0  0  0  0  0  0  0  0  0  0  0
  -10.2356  -12.4800    1.3954 H   0  0  0  0  0  0  0  0  0  0  0  0
  -10.2550  -15.4079    1.4647 H   0  0  0  0  0  0  0  0  0  0  0  0
   -8.1587  -13.9115    1.0635 H   0  0  0  0  0  0  0  0  0  0  0  0
   -8.0007  -15.2091    2.0422 H   0  0  0  0  0  0  0  0  0  0  0  0
   -9.9487  -12.4521    3.6744 H   0  0  0  0  0  0  0  0  0  0  0  0
   -9.3084  -13.3997    4.8400 H   0  0  0  0  0  0  0  0  0  0  0  0
  -10.0789  -15.3462    3.8287 H   0  0  0  0  0  0  0  0  0  0  0  0
  -11.3127  -14.3243    3.5127 H   0  0  0  0  0  0  0  0  0  0  0  0
   -7.4692  -14.9308    4.2511 H   0  0  0  0  0  0  0  0  0  0  0  0
   -6.9869  -13.4408    4.7137 H   0  0  0  0  0  0  0  0  0  0  0  0
   -6.1501  -14.0747    2.0892 H   0  0  0  0  0  0  0  0  0  0  0  0
   -5.8589  -16.2665    2.9768 H   0  0  0  0  0  0  0  0  0  0  0  0
   -5.0768  -15.6606    4.2761 H   0  0  0  0  0  0  0  0  0  0  0  0
   -4.0885  -15.5988    1.5594 H   0  0  0  0  0  0  0  0  0  0  0  0
   -3.4799  -16.5232    2.7602 H   0  0  0  0  0  0  0  0  0  0  0  0
   -2.1303  -14.5702    2.3860 H   0  0  0  0  0  0  0  0  0  0  0  0
   -2.7273  -14.6001    3.9056 H   0  0  0  0  0  0  0  0  0  0  0  0
   -3.7881  -13.0207    1.7296 H   0  0  0  0  0  0  0  0  0  0  0  0
   -2.9993  -12.4239    3.0289 H   0  0  0  0  0  0  0  0  0  0  0  0
   -4.7688  -13.1012    4.4490 H   0  0  0  0  0  0  0  0  0  0  0  0
   -5.3729  -12.1562    3.2621 H   0  0  0  0  0  0  0  0  0  0  0  0
   -7.9376  -12.5242    2.7601 H   0  0  0  0  0  0  0  0  0  0  0  0
  1  2  2  0  0  0  0
  1  6  1  0  0  0  0
  1 22  1  0  0  0  0
  2  3  1  0  0  0  0
  2 23  1  0  0  0  0
  3  4  2  0  0  0  0
  3  7  1  0  0  0  0
  4  5  1  0  0  0  0
  4 24  1  0  0  0  0
  5  6  2  0  0  0  0
  5 25  1  0  0  0  0
  6 26  1  0  0  0  0
  7  8  1  0  0  0  0
  7  9  2  0  0  0  0
  8 10  1  0  0  0  0
  8 27  1  0  0  0  0
 10 11  1  0  0  0  0
 10 14  1  0  0  0  0
 10 28  1  6  0  0  0
 11 12  1  0  0  0  0
 11 29  1  0  0  0  0
 11 30  1  0  0  0  0
 12 13  1  0  0  0  0
 12 15  1  0  0  0  0
 12 48  1  6  0  0  0
 13 14  1  0  0  0  0
 13 31  1  0  0  0  0
 13 32  1  0  0  0  0
 14 33  1  0  0  0  0
 14 34  1  0  0  0  0
 15 16  1  0  0  0  0
 15 35  1  0  0  0  0
 15 36  1  0  0  0  0
 16 17  1  0  0  0  0
 16 21  1  0  0  0  0
 16 37  1  0  0  0  0
 17 18  1  0  0  0  0
 17 38  1  0  0  0  0
 17 39  1  0  0  0  0
 18 19  1  0  0  0  0
 18 40  1  0  0  0  0
 18 41  1  0  0  0  0
 19 20  1  0  0  0  0
 19 42  1  0  0  0  0
 19 43  1  0  0  0  0
 20 21  1  0  0  0  0
 20 44  1  0  0  0  0
 20 45  1  0  0  0  0
 21 46  1  0  0  0  0
 21 47  1  0  0  0  0
M  CHG  1  12   1
M  END
>  <BIOSOLVEIT.HYDE_ESTIMATED_AFFINITY_LOWER_BOUNDARY [nM]>
2013440856.292833

>  <BIOSOLVEIT.HYDE_ESTIMATED_AFFINITY_UPPER_BOUNDARY [nM]>
200047253477.163910

>  <BIOSOLVEIT.HYDE_LIGAND_EFFICIENCY range: ++, +, 0, -, -->
--

>  <BIOSOLVEIT.HYDE_LIGAND_LIPOPHILIC_EFFICIENCY range: ++, +, 0, -, -->
--

>  <BIOSOLVEIT.INTER_CLASH range: red, yellow, green>
green

>  <BIOSOLVEIT.INTRA_CLASH range: red, yellow, green>
green

>  <BIOSOLVEIT.LOGP>
1.6539

>  <BIOSOLVEIT.MOLECULAR WEIGHT>
287.424

>  <BIOSOLVEIT.MOLECULE_CHECKSUM>
Ny40MzQ4OTsw

>  <BIOSOLVEIT.TORSION_QUALITY range: red, yellow, green, not rotatable>
yellow

>  <BIOSOLVEIT.TPSA>
33.54

$$$$
