Z1273128799.****
 OpenBabel12172121453D
Hydescorer 1.1.2 b8048283
 32 33  0  0  0  0  0  0  0  0999 V2000
   -3.5213  -16.4114    2.4259 C   0  0  0  0  0  0  0  0  0  0  0  0
   -3.6234  -15.0735    2.8009 C   0  0  0  0  0  0  0  0  0  0  0  0
   -4.8667  -14.4423    2.8538 C   0  0  0  0  0  0  0  0  0  0  0  0
   -6.0069  -15.1920    2.5273 C   0  0  0  0  0  0  0  0  0  0  0  0
   -5.9200  -16.5250    2.1408 C   0  0  0  0  0  0  0  0  0  0  0  0
   -4.6692  -17.1348    2.0938 C   0  0  0  0  0  0  0  0  0  0  0  0
   -4.5358  -18.7972    1.6259 Cl  0  0  0  0  0  0  0  0  0  0  0  0
   -4.9600  -12.9802    3.2563 C   0  0  0  0  0  0  0  0  0  0  0  0
   -7.2830  -14.6013    2.5851 N   0  0  0  0  0  0  0  0  0  0  0  0
   -8.2190  -14.8292    3.5441 C   0  0  0  0  0  0  0  0  0  0  0  0
   -9.5703  -14.1432    3.5212 C   0  0  0  0  0  0  0  0  0  0  0  0
   -7.8979  -15.6044    4.4139 O   0  0  0  0  0  0  0  0  0  0  0  0
  -10.1963  -14.3478    4.9164 C   0  0  0  0  0  0  0  0  0  0  0  0
  -11.6213  -13.7423    5.0687 C   0  0  0  0  0  0  0  0  0  0  0  0
  -11.1712  -13.2859    6.4884 C   0  0  0  0  0  0  0  0  0  0  0  0
   -9.7055  -13.3061    5.9595 C   0  0  0  0  0  0  0  0  0  0  0  0
   -2.6253  -16.8543    2.3945 H   0  0  0  0  0  0  0  0  0  0  0  0
   -2.7975  -14.5605    3.0345 H   0  0  0  0  0  0  0  0  0  0  0  0
   -6.7438  -17.0382    1.9001 H   0  0  0  0  0  0  0  0  0  0  0  0
   -5.9171  -12.6908    3.2417 H   0  0  0  0  0  0  0  0  0  0  0  0
   -4.5907  -12.8642    4.1784 H   0  0  0  0  0  0  0  0  0  0  0  0
   -4.4335  -12.4234    2.6139 H   0  0  0  0  0  0  0  0  0  0  0  0
   -7.5218  -13.9582    1.8575 H   0  0  0  0  0  0  0  0  0  0  0  0
  -10.1526  -14.5528    2.8189 H   0  0  0  0  0  0  0  0  0  0  0  0
   -9.4581  -13.1673    3.3338 H   0  0  0  0  0  0  0  0  0  0  0  0
  -10.1325  -15.2912    5.2421 H   0  0  0  0  0  0  0  0  0  0  0  0
  -12.3654  -14.4103    5.0579 H   0  0  0  0  0  0  0  0  0  0  0  0
  -11.8321  -12.9983    4.4347 H   0  0  0  0  0  0  0  0  0  0  0  0
  -11.3603  -13.9440    7.2171 H   0  0  0  0  0  0  0  0  0  0  0  0
  -11.5035  -12.3828    6.7605 H   0  0  0  0  0  0  0  0  0  0  0  0
   -9.3865  -12.4413    5.5719 H   0  0  0  0  0  0  0  0  0  0  0  0
   -9.0285  -13.6497    6.6103 H   0  0  0  0  0  0  0  0  0  0  0  0
  1  2  2  0  0  0  0
  1  6  1  0  0  0  0
  1 17  1  0  0  0  0
  2  3  1  0  0  0  0
  2 18  1  0  0  0  0
  3  4  2  0  0  0  0
  3  8  1  0  0  0  0
  4  5  1  0  0  0  0
  4  9  1  0  0  0  0
  5  6  2  0  0  0  0
  5 19  1  0  0  0  0
  6  7  1  0  0  0  0
  8 20  1  0  0  0  0
  8 21  1  0  0  0  0
  8 22  1  0  0  0  0
  9 10  1  0  0  0  0
  9 23  1  0  0  0  0
 10 11  1  0  0  0  0
 10 12  2  0  0  0  0
 11 13  1  0  0  0  0
 11 24  1  0  0  0  0
 11 25  1  0  0  0  0
 13 14  1  0  0  0  0
 13 16  1  0  0  0  0
 13 26  1  0  0  0  0
 14 15  1  0  0  0  0
 14 27  1  0  0  0  0
 14 28  1  0  0  0  0
 15 16  1  0  0  0  0
 15 29  1  0  0  0  0
 15 30  1  0  0  0  0
 16 31  1  0  0  0  0
 16 32  1  0  0  0  0
M  END
>  <BIOSOLVEIT.HYDE_ESTIMATED_AFFINITY_LOWER_BOUNDARY [nM]>
80253537.887208

>  <BIOSOLVEIT.HYDE_ESTIMATED_AFFINITY_UPPER_BOUNDARY [nM]>
7973663485.562359

>  <BIOSOLVEIT.HYDE_LIGAND_EFFICIENCY range: ++, +, 0, -, -->
--

>  <BIOSOLVEIT.HYDE_LIGAND_LIPOPHILIC_EFFICIENCY range: ++, +, 0, -, -->
--

>  <BIOSOLVEIT.INTER_CLASH range: red, yellow, green>
green

>  <BIOSOLVEIT.INTRA_CLASH range: red, yellow, green>
green

>  <BIOSOLVEIT.LOGP>
3.77712

>  <BIOSOLVEIT.MOLECULAR WEIGHT>
237.728

>  <BIOSOLVEIT.MOLECULE_CHECKSUM>
LTAuNTUzMzI4OzAuMDM0NTgz

>  <BIOSOLVEIT.TORSION_QUALITY range: red, yellow, green, not rotatable>
green

>  <BIOSOLVEIT.TPSA>
29.1

$$$$
