G8.sdf
 OpenBabel12172121453D
Hydescorer 1.1.2 b8048283
 60 63  0  0  0  0  0  0  0  0999 V2000
   -3.7924  -11.5427   -3.6525 C   0  0  0  0  0  0  0  0  0  0  0  0
   -4.3590  -11.4817   -2.4449 N   0  0  0  0  0  0  0  0  0  0  0  0
   -5.6111  -11.0375   -2.3213 C   0  0  0  0  0  0  0  0  0  0  0  0
   -6.3634  -10.6398   -3.4487 C   0  0  0  0  0  0  0  0  0  0  0  0
   -5.7817  -10.6877   -4.7143 C   0  0  0  0  0  0  0  0  0  0  0  0
   -4.4766  -11.1505   -4.8066 C   0  0  0  0  0  0  0  0  0  0  0  0
   -3.6972  -11.2425   -6.3517 Cl  0  0  0  0  0  0  0  0  0  0  0  0
   -7.7008  -10.2031   -3.2775 N   0  0  0  0  0  0  0  0  0  0  0  0
   -8.8599  -10.9092   -3.8437 C   0  0  0  0  0  0  0  0  0  0  0  0
  -10.0686  -10.6117   -2.9713 C   0  0  0  0  0  0  0  0  0  0  0  0
  -10.9578   -9.5665   -2.9977 C   0  0  0  0  0  0  0  0  0  0  0  0
  -11.9438   -9.6539   -2.0070 C   0  0  0  0  0  0  0  0  0  0  0  0
  -11.8166  -10.7700   -1.2070 C   0  0  0  0  0  0  0  0  0  0  0  0
  -10.4533  -11.7196   -1.7053 S   0  0  0  0  0  0  0  0  0  0  0  0
  -12.6412  -11.1877   -0.0848 C   0  0  0  0  0  0  0  0  0  0  0  0
  -12.0626  -11.9497    0.8959 N   0  0  0  0  0  0  0  0  0  0  0  0
  -12.6936  -12.4997    2.1407 C   0  0  2  0  0  0  0  0  0  0  0  0
  -11.9432  -12.0908    3.4222 C   0  0  0  0  0  0  0  0  0  0  0  0
  -12.2189  -11.0519    4.0206 O   0  0  0  0  0  0  0  0  0  0  0  0
  -10.9590  -12.8948    3.9089 N   0  0  0  0  0  0  0  0  0  0  0  0
  -10.1858  -12.6159    5.1026 C   0  0  0  0  0  0  0  0  0  0  0  0
  -13.8285  -10.9050    0.0278 O   0  0  0  0  0  0  0  0  0  0  0  0
   -6.1806  -10.9853   -0.9205 C   0  0  0  0  0  0  0  0  0  0  0  0
   -9.7305  -13.8409    5.8299 C   0  0  0  0  0  0  0  0  0  0  0  0
  -10.8662  -13.0074    6.3754 C   0  0  0  0  0  0  0  0  0  0  0  0
   -2.8537  -11.8779   -3.7334 H   0  0  0  0  0  0  0  0  0  0  0  0
   -6.2871  -10.3989   -5.5274 H   0  0  0  0  0  0  0  0  0  0  0  0
   -7.8646   -9.3728   -2.7448 H   0  0  0  0  0  0  0  0  0  0  0  0
   -8.6844  -11.8936   -3.8549 H   0  0  0  0  0  0  0  0  0  0  0  0
   -9.0285  -10.5900   -4.7763 H   0  0  0  0  0  0  0  0  0  0  0  0
  -10.9067   -8.8175   -3.6583 H   0  0  0  0  0  0  0  0  0  0  0  0
  -12.6682   -8.9744   -1.8912 H   0  0  0  0  0  0  0  0  0  0  0  0
  -11.0954  -12.1672    0.7650 H   0  0  0  0  0  0  0  0  0  0  0  0
  -12.8119  -14.0477    2.0843 C   0  0  0  0  0  0  0  0  0  0  0  0
  -10.7551  -13.7363    3.4083 H   0  0  0  0  0  0  0  0  0  0  0  0
   -9.5924  -11.8110    5.1081 H   0  0  0  0  0  0  0  0  0  0  0  0
   -7.1180  -10.6387   -0.9545 H   0  0  0  0  0  0  0  0  0  0  0  0
   -6.1790  -11.9041   -0.5256 H   0  0  0  0  0  0  0  0  0  0  0  0
   -5.6212  -10.3787   -0.3557 H   0  0  0  0  0  0  0  0  0  0  0  0
  -13.9793  -14.5381    2.9769 C   0  0  0  0  0  0  0  0  0  0  0  0
  -11.9576  -14.4546    2.4077 H   0  0  0  0  0  0  0  0  0  0  0  0
  -12.9792  -14.3304    1.1399 H   0  0  0  0  0  0  0  0  0  0  0  0
  -14.3660  -15.9758    2.6151 C   0  0  0  0  0  0  0  0  0  0  0  0
  -13.6287  -14.7141    4.4611 C   0  0  0  0  0  0  0  0  0  0  0  0
  -12.8781  -16.0448    4.5486 C   0  0  0  0  0  0  0  0  0  0  0  0
  -13.3668  -16.8713    3.3543 C   0  0  0  0  0  0  0  0  0  0  0  0
  -14.7686  -13.9322    2.8776 H   0  0  0  0  0  0  0  0  0  0  0  0
  -14.2973  -16.1175    1.6275 H   0  0  0  0  0  0  0  0  0  0  0  0
  -15.2993  -16.1722    2.9158 H   0  0  0  0  0  0  0  0  0  0  0  0
  -14.4605  -14.7449    5.0154 H   0  0  0  0  0  0  0  0  0  0  0  0
  -13.0471  -13.9634    4.7743 H   0  0  0  0  0  0  0  0  0  0  0  0
  -13.0923  -16.5109    5.4069 H   0  0  0  0  0  0  0  0  0  0  0  0
  -11.8913  -15.8938    4.4886 H   0  0  0  0  0  0  0  0  0  0  0  0
  -12.6009  -17.1074    2.7563 H   0  0  0  0  0  0  0  0  0  0  0  0
  -13.8144  -17.7083    3.6688 H   0  0  0  0  0  0  0  0  0  0  0  0
  -13.6198  -12.1274    2.2004 H   0  0  0  0  0  0  0  0  0  0  0  0
   -8.8454  -13.8472    6.2953 H   0  0  0  0  0  0  0  0  0  0  0  0
   -9.9128  -14.7469    5.4479 H   0  0  0  0  0  0  0  0  0  0  0  0
  -11.8015  -13.3607    6.3552 H   0  0  0  0  0  0  0  0  0  0  0  0
  -10.7342  -12.4610    7.2025 H   0  0  0  0  0  0  0  0  0  0  0  0
  1  2  2  0  0  0  0
  1  6  1  0  0  0  0
  1 26  1  0  0  0  0
  2  3  1  0  0  0  0
  3  4  2  0  0  0  0
  3 23  1  0  0  0  0
  4  5  1  0  0  0  0
  4  8  1  0  0  0  0
  5  6  2  0  0  0  0
  5 27  1  0  0  0  0
  6  7  1  0  0  0  0
  8  9  1  0  0  0  0
  8 28  1  0  0  0  0
  9 10  1  0  0  0  0
  9 29  1  0  0  0  0
  9 30  1  0  0  0  0
 10 11  2  0  0  0  0
 10 14  1  0  0  0  0
 11 12  1  0  0  0  0
 11 31  1  0  0  0  0
 12 13  2  0  0  0  0
 12 32  1  0  0  0  0
 13 14  1  0  0  0  0
 13 15  1  0  0  0  0
 15 16  1  0  0  0  0
 15 22  2  0  0  0  0
 16 17  1  0  0  0  0
 16 33  1  0  0  0  0
 17 18  1  0  0  0  0
 17 34  1  0  0  0  0
 17 56  1  1  0  0  0
 18 19  2  0  0  0  0
 18 20  1  0  0  0  0
 20 21  1  0  0  0  0
 20 35  1  0  0  0  0
 21 24  1  0  0  0  0
 21 25  1  0  0  0  0
 21 36  1  0  0  0  0
 23 37  1  0  0  0  0
 23 38  1  0  0  0  0
 23 39  1  0  0  0  0
 24 25  1  0  0  0  0
 24 57  1  0  0  0  0
 24 58  1  0  0  0  0
 25 59  1  0  0  0  0
 25 60  1  0  0  0  0
 34 40  1  0  0  0  0
 34 41  1  0  0  0  0
 34 42  1  0  0  0  0
 40 43  1  0  0  0  0
 40 44  1  0  0  0  0
 40 47  1  0  0  0  0
 43 46  1  0  0  0  0
 43 48  1  0  0  0  0
 43 49  1  0  0  0  0
 44 45  1  0  0  0  0
 44 50  1  0  0  0  0
 44 51  1  0  0  0  0
 45 46  1  0  0  0  0
 45 52  1  0  0  0  0
 45 53  1  0  0  0  0
 46 54  1  0  0  0  0
 46 55  1  0  0  0  0
M  END
>  <BIOSOLVEIT.HYDE_ESTIMATED_AFFINITY_LOWER_BOUNDARY [nM]>
541719.710570

>  <BIOSOLVEIT.HYDE_ESTIMATED_AFFINITY_UPPER_BOUNDARY [nM]>
53823056.145545

>  <BIOSOLVEIT.HYDE_LIGAND_EFFICIENCY range: ++, +, 0, -, -->
--

>  <BIOSOLVEIT.HYDE_LIGAND_LIPOPHILIC_EFFICIENCY range: ++, +, 0, -, -->
--

>  <BIOSOLVEIT.INTER_CLASH range: red, yellow, green>
green

>  <BIOSOLVEIT.INTRA_CLASH range: red, yellow, green>
green

>  <BIOSOLVEIT.LOGP>
4.67432

>  <BIOSOLVEIT.MOLECULAR WEIGHT>
461.026

>  <BIOSOLVEIT.MOLECULE_CHECKSUM>
LTEyLjk0MzY7MC40MTc1Mzc=

>  <BIOSOLVEIT.TORSION_QUALITY range: red, yellow, green, not rotatable>
red

>  <BIOSOLVEIT.TPSA>
83.12

$$$$
