PV-001802957486.****
 OpenBabel12172121453D
Hydescorer 1.1.2 b8048283
 41 43  0  0  0  0  0  0  0  0999 V2000
   -1.7907  -15.8044    3.9161 C   0  0  0  0  0  0  0  0  0  0  0  0
   -2.8403  -15.3437    3.1203 C   0  0  0  0  0  0  0  0  0  0  0  0
   -3.2448  -14.0033    3.2222 C   0  0  0  0  0  0  0  0  0  0  0  0
   -2.5888  -13.1545    4.1147 C   0  0  0  0  0  0  0  0  0  0  0  0
   -1.5426  -13.6238    4.9033 C   0  0  0  0  0  0  0  0  0  0  0  0
   -1.1446  -14.9502    4.8015 C   0  0  0  0  0  0  0  0  0  0  0  0
   -3.5151  -16.3236    2.1751 C   0  0  0  0  0  0  0  0  0  0  0  0
   -0.6637  -12.4569    6.1058 Br  0  0  0  0  0  0  0  0  0  0  0  0
   -4.3620  -13.4148    2.3619 C   0  0  0  0  0  0  0  0  0  0  0  0
   -5.6897  -13.9059    2.9100 C   0  0  0  0  0  0  0  0  0  0  0  0
   -6.8168  -13.6822    2.1562 N   0  0  0  0  0  0  0  0  0  0  0  0
   -5.7679  -14.4749    3.9796 O   0  0  0  0  0  0  0  0  0  0  0  0
   -8.1433  -14.0504    2.4707 C   0  0  0  0  0  0  0  0  0  0  0  0
   -8.6542  -13.9053    3.7597 C   0  0  0  0  0  0  0  0  0  0  0  0
   -9.9779  -14.2698    3.9885 C   0  0  0  0  0  0  0  0  0  0  0  0
  -10.7841  -14.7974    2.9769 C   0  0  0  0  0  0  0  0  0  0  0  0
  -10.2462  -14.9565    1.7003 C   0  0  0  0  0  0  0  0  0  0  0  0
   -8.9275  -14.5838    1.4441 C   0  0  0  0  0  0  0  0  0  0  0  0
  -10.5299  -14.0909    5.2990 N   0  0  0  0  0  0  0  0  0  0  0  0
  -11.1220  -12.9967    5.8009 C   0  0  0  0  0  0  0  0  0  0  0  0
  -11.4933  -13.2355    7.0155 N   0  0  0  0  0  0  0  0  0  0  0  0
  -11.1319  -14.5303    7.3151 N   0  0  0  0  0  0  0  0  0  0  0  0
  -10.5580  -15.0109    6.2646 C   0  0  0  0  0  0  0  0  0  0  0  0
  -11.2985  -11.7100    5.0228 C   0  0  0  0  0  0  0  0  0  0  0  0
   -1.5006  -16.7589    3.8486 H   0  0  0  0  0  0  0  0  0  0  0  0
   -2.8735  -12.1987    4.1884 H   0  0  0  0  0  0  0  0  0  0  0  0
   -0.3926  -15.2909    5.3657 H   0  0  0  0  0  0  0  0  0  0  0  0
   -4.2428  -15.8556    1.6737 H   0  0  0  0  0  0  0  0  0  0  0  0
   -2.8412  -16.6808    1.5284 H   0  0  0  0  0  0  0  0  0  0  0  0
   -3.9054  -17.0792    2.7012 H   0  0  0  0  0  0  0  0  0  0  0  0
   -4.2544  -13.7161    1.4145 H   0  0  0  0  0  0  0  0  0  0  0  0
   -4.3285  -12.4162    2.4000 H   0  0  0  0  0  0  0  0  0  0  0  0
   -6.6825  -13.2052    1.2877 H   0  0  0  0  0  0  0  0  0  0  0  0
   -8.0847  -13.5489    4.5004 H   0  0  0  0  0  0  0  0  0  0  0  0
  -11.7313  -15.0568    3.1652 H   0  0  0  0  0  0  0  0  0  0  0  0
  -10.8079  -15.3388    0.9666 H   0  0  0  0  0  0  0  0  0  0  0  0
   -8.5435  -14.6980    0.5278 H   0  0  0  0  0  0  0  0  0  0  0  0
  -10.1887  -15.9368    6.1856 H   0  0  0  0  0  0  0  0  0  0  0  0
  -11.7637  -11.0352    5.5957 H   0  0  0  0  0  0  0  0  0  0  0  0
  -10.4022  -11.3576    4.7536 H   0  0  0  0  0  0  0  0  0  0  0  0
  -11.8463  -11.8874    4.2052 H   0  0  0  0  0  0  0  0  0  0  0  0
  1  2  2  0  0  0  0
  1  6  1  0  0  0  0
  1 25  1  0  0  0  0
  2  3  1  0  0  0  0
  2  7  1  0  0  0  0
  3  4  2  0  0  0  0
  3  9  1  0  0  0  0
  4  5  1  0  0  0  0
  4 26  1  0  0  0  0
  5  6  2  0  0  0  0
  5  8  1  0  0  0  0
  6 27  1  0  0  0  0
  7 28  1  0  0  0  0
  7 29  1  0  0  0  0
  7 30  1  0  0  0  0
  9 10  1  0  0  0  0
  9 31  1  0  0  0  0
  9 32  1  0  0  0  0
 10 11  1  0  0  0  0
 10 12  2  0  0  0  0
 11 13  1  0  0  0  0
 11 33  1  0  0  0  0
 13 14  2  0  0  0  0
 13 18  1  0  0  0  0
 14 15  1  0  0  0  0
 14 34  1  0  0  0  0
 15 16  2  0  0  0  0
 15 19  1  0  0  0  0
 16 17  1  0  0  0  0
 16 35  1  0  0  0  0
 17 18  2  0  0  0  0
 17 36  1  0  0  0  0
 18 37  1  0  0  0  0
 19 20  1  0  0  0  0
 19 23  1  0  0  0  0
 20 21  2  0  0  0  0
 20 24  1  0  0  0  0
 21 22  1  0  0  0  0
 22 23  2  0  0  0  0
 23 38  1  0  0  0  0
 24 39  1  0  0  0  0
 24 40  1  0  0  0  0
 24 41  1  0  0  0  0
M  END
>  <BIOSOLVEIT.HYDE_ESTIMATED_AFFINITY_LOWER_BOUNDARY [nM]>
47726165871.648392

>  <BIOSOLVEIT.HYDE_ESTIMATED_AFFINITY_UPPER_BOUNDARY [nM]>
4741876758772.903320

>  <BIOSOLVEIT.HYDE_LIGAND_EFFICIENCY range: ++, +, 0, -, -->
--

>  <BIOSOLVEIT.HYDE_LIGAND_LIPOPHILIC_EFFICIENCY range: ++, +, 0, -, -->
--

>  <BIOSOLVEIT.INTER_CLASH range: red, yellow, green>
green

>  <BIOSOLVEIT.INTRA_CLASH range: red, yellow, green>
green

>  <BIOSOLVEIT.LOGP>
3.82784

>  <BIOSOLVEIT.MOLECULAR WEIGHT>
385.263

>  <BIOSOLVEIT.MOLECULE_CHECKSUM>
MTUuMjgyNDsw

>  <BIOSOLVEIT.TORSION_QUALITY range: red, yellow, green, not rotatable>
yellow

>  <BIOSOLVEIT.TPSA>
59.81

$$$$
