Z757130778.****
 OpenBabel12172121453D
Hydescorer 1.1.2 b8048283
 53 56  0  0  0  0  0  0  0  0999 V2000
   -5.6609  -10.8046   -2.7229 C   0  0  0  0  0  0  0  0  0  0  0  0
   -6.4167  -11.0446   -1.5773 C   0  0  0  0  0  0  0  0  0  0  0  0
   -7.8037  -11.0810   -1.6688 C   0  0  0  0  0  0  0  0  0  0  0  0
   -8.4448  -10.8870   -2.9047 C   0  0  0  0  0  0  0  0  0  0  0  0
   -7.6651  -10.6248   -4.0411 C   0  0  0  0  0  0  0  0  0  0  0  0
   -6.2779  -10.5836   -3.9561 C   0  0  0  0  0  0  0  0  0  0  0  0
   -4.2922  -10.7606   -2.5828 O   0  0  0  0  0  0  0  0  0  0  0  0
   -3.3818  -11.3458   -3.4388 C   0  0  0  0  0  0  0  0  0  0  0  0
   -3.7295  -12.4698   -4.1885 C   0  0  0  0  0  0  0  0  0  0  0  0
   -2.7857  -13.0358   -5.0406 C   0  0  0  0  0  0  0  0  0  0  0  0
   -1.5077  -12.4841   -5.1322 C   0  0  0  0  0  0  0  0  0  0  0  0
   -1.1689  -11.3665   -4.3704 C   0  0  0  0  0  0  0  0  0  0  0  0
   -2.1068  -10.7944   -3.5171 C   0  0  0  0  0  0  0  0  0  0  0  0
   -9.9037  -10.9291   -3.0151 C   0  0  0  0  0  0  0  0  0  0  0  0
  -10.7270  -10.8722   -1.9322 N   0  0  0  0  0  0  0  0  0  0  0  0
  -10.4979  -11.0472   -4.0711 O   0  0  0  0  0  0  0  0  0  0  0  0
  -12.1733  -10.9110   -2.0002 C   0  0  1  0  0  0  0  0  0  0  0  0
  -12.6594  -11.4102   -0.6367 C   0  0  0  0  0  0  0  0  0  0  0  0
  -14.1931  -11.3380   -0.6510 C   0  0  0  0  0  0  0  0  0  0  0  0
  -14.5216   -9.9079   -0.8233 N   0  3  1  0  0  0  0  0  0  0  0  0
  -14.1729   -9.4822   -2.1977 C   0  0  0  0  0  0  0  0  0  0  0  0
  -12.6398   -9.4731   -2.2511 C   0  0  0  0  0  0  0  0  0  0  0  0
  -15.9684   -9.7441   -0.6310 C   0  0  0  0  0  0  0  0  0  0  0  0
  -16.3548  -10.9911    0.1781 C   0  0  0  0  0  0  0  0  0  0  0  0
  -17.7183  -10.9625    0.8030 C   0  0  0  0  0  0  0  0  0  0  0  0
  -17.4522  -11.8419   -0.3968 C   0  0  0  0  0  0  0  0  0  0  0  0
   -5.9654  -11.1893   -0.6966 H   0  0  0  0  0  0  0  0  0  0  0  0
   -8.3502  -11.2468   -0.8478 H   0  0  0  0  0  0  0  0  0  0  0  0
   -8.1118  -10.4659   -4.9215 H   0  0  0  0  0  0  0  0  0  0  0  0
   -5.7274  -10.3976   -4.7700 H   0  0  0  0  0  0  0  0  0  0  0  0
   -4.6456  -12.8639   -4.1144 H   0  0  0  0  0  0  0  0  0  0  0  0
   -3.0239  -13.8384   -5.5875 H   0  0  0  0  0  0  0  0  0  0  0  0
   -0.8321  -12.8917   -5.7465 H   0  0  0  0  0  0  0  0  0  0  0  0
   -0.2508  -10.9759   -4.4375 H   0  0  0  0  0  0  0  0  0  0  0  0
   -1.8672   -9.9952   -2.9658 H   0  0  0  0  0  0  0  0  0  0  0  0
  -10.3046  -10.7988   -1.0288 H   0  0  0  0  0  0  0  0  0  0  0  0
  -12.4800  -11.5186   -2.7328 H   0  0  0  0  0  0  0  0  0  0  0  0
  -12.2953  -10.8292    0.0912 H   0  0  0  0  0  0  0  0  0  0  0  0
  -12.3616  -12.3535   -0.4906 H   0  0  0  0  0  0  0  0  0  0  0  0
  -14.5668  -11.6806    0.2110 H   0  0  0  0  0  0  0  0  0  0  0  0
  -14.5609  -11.8747   -1.4104 H   0  0  0  0  0  0  0  0  0  0  0  0
  -14.5339   -8.5680   -2.3821 H   0  0  0  0  0  0  0  0  0  0  0  0
  -14.5416  -10.1273   -2.8670 H   0  0  0  0  0  0  0  0  0  0  0  0
  -12.3295   -9.1635   -3.1499 H   0  0  0  0  0  0  0  0  0  0  0  0
  -12.2753   -8.8658   -1.5451 H   0  0  0  0  0  0  0  0  0  0  0  0
  -16.4472   -9.7229   -1.5086 H   0  0  0  0  0  0  0  0  0  0  0  0
  -16.1704   -8.9081   -0.1207 H   0  0  0  0  0  0  0  0  0  0  0  0
  -15.6272  -11.4567    0.6818 H   0  0  0  0  0  0  0  0  0  0  0  0
  -18.2944  -10.1504    0.7102 H   0  0  0  0  0  0  0  0  0  0  0  0
  -17.8652  -11.3743    1.7024 H   0  0  0  0  0  0  0  0  0  0  0  0
  -17.4220  -12.8359   -0.2922 H   0  0  0  0  0  0  0  0  0  0  0  0
  -17.8512  -11.6121   -1.2845 H   0  0  0  0  0  0  0  0  0  0  0  0
  -14.0212   -9.3571   -0.1552 H   0  0  0  0  0  0  0  0  0  0  0  0
  1  2  2  0  0  0  0
  1  6  1  0  0  0  0
  1  7  1  0  0  0  0
  2  3  1  0  0  0  0
  2 27  1  0  0  0  0
  3  4  2  0  0  0  0
  3 28  1  0  0  0  0
  4  5  1  0  0  0  0
  4 14  1  0  0  0  0
  5  6  2  0  0  0  0
  5 29  1  0  0  0  0
  6 30  1  0  0  0  0
  7  8  1  0  0  0  0
  8  9  2  0  0  0  0
  8 13  1  0  0  0  0
  9 10  1  0  0  0  0
  9 31  1  0  0  0  0
 10 11  2  0  0  0  0
 10 32  1  0  0  0  0
 11 12  1  0  0  0  0
 11 33  1  0  0  0  0
 12 13  2  0  0  0  0
 12 34  1  0  0  0  0
 13 35  1  0  0  0  0
 14 15  1  0  0  0  0
 14 16  2  0  0  0  0
 15 17  1  0  0  0  0
 15 36  1  0  0  0  0
 17 18  1  0  0  0  0
 17 22  1  0  0  0  0
 17 37  1  6  0  0  0
 18 19  1  0  0  0  0
 18 38  1  0  0  0  0
 18 39  1  0  0  0  0
 19 20  1  0  0  0  0
 19 40  1  0  0  0  0
 19 41  1  0  0  0  0
 20 21  1  0  0  0  0
 20 23  1  0  0  0  0
 20 53  1  1  0  0  0
 21 22  1  0  0  0  0
 21 42  1  0  0  0  0
 21 43  1  0  0  0  0
 22 44  1  0  0  0  0
 22 45  1  0  0  0  0
 23 24  1  0  0  0  0
 23 46  1  0  0  0  0
 23 47  1  0  0  0  0
 24 25  1  0  0  0  0
 24 26  1  0  0  0  0
 24 48  1  0  0  0  0
 25 26  1  0  0  0  0
 25 49  1  0  0  0  0
 25 50  1  0  0  0  0
 26 51  1  0  0  0  0
 26 52  1  0  0  0  0
M  CHG  1  20   1
M  END
>  <BIOSOLVEIT.HYDE_ESTIMATED_AFFINITY_LOWER_BOUNDARY [nM]>
2307775.992596

>  <BIOSOLVEIT.HYDE_ESTIMATED_AFFINITY_UPPER_BOUNDARY [nM]>
229291189.515926

>  <BIOSOLVEIT.HYDE_LIGAND_EFFICIENCY range: ++, +, 0, -, -->
--

>  <BIOSOLVEIT.HYDE_LIGAND_LIPOPHILIC_EFFICIENCY range: ++, +, 0, -, -->
--

>  <BIOSOLVEIT.INTER_CLASH range: red, yellow, green>
green

>  <BIOSOLVEIT.INTRA_CLASH range: red, yellow, green>
green

>  <BIOSOLVEIT.LOGP>
2.666

>  <BIOSOLVEIT.MOLECULAR WEIGHT>
351.467

>  <BIOSOLVEIT.MOLECULE_CHECKSUM>
LTkuMzUwOTE7MC4zNTk2NTE=

>  <BIOSOLVEIT.TORSION_QUALITY range: red, yellow, green, not rotatable>
green

>  <BIOSOLVEIT.TPSA>
42.77

$$$$
