Z316554572.****
 OpenBabel12172121453D
Hydescorer 1.1.2 b8048283
 39 40  0  0  0  0  0  0  0  0999 V2000
   -6.8713  -10.2616   -3.6584 C   0  0  0  0  0  0  0  0  0  0  0  0
   -5.8581  -10.7685   -4.4654 C   0  0  0  0  0  0  0  0  0  0  0  0
   -4.7288  -11.3398   -3.8898 C   0  0  0  0  0  0  0  0  0  0  0  0
   -4.6128  -11.4028   -2.5049 C   0  0  0  0  0  0  0  0  0  0  0  0
   -5.6254  -10.8957   -1.6972 C   0  0  0  0  0  0  0  0  0  0  0  0
   -6.7621  -10.3243   -2.2691 C   0  0  0  0  0  0  0  0  0  0  0  0
   -7.8800   -9.7931   -1.3823 C   0  0  0  0  0  0  0  0  0  0  0  0
   -9.2034  -10.3185   -1.9072 C   0  0  0  0  0  0  0  0  0  0  0  0
  -10.1980   -9.4069   -2.1690 N   0  0  0  0  0  0  0  0  0  0  0  0
   -9.3979  -11.5082   -2.0551 O   0  0  0  0  0  0  0  0  0  0  0  0
  -11.5003   -9.6641   -2.6592 C   0  0  0  0  0  0  0  0  0  0  0  0
  -12.5482   -9.6543   -1.7353 C   0  0  0  0  0  0  0  0  0  0  0  0
  -13.8503   -9.9003   -2.1680 C   0  0  0  0  0  0  0  0  0  0  0  0
  -14.1064  -10.1564   -3.5131 C   0  0  0  0  0  0  0  0  0  0  0  0
  -13.0473  -10.1615   -4.4225 C   0  0  0  0  0  0  0  0  0  0  0  0
  -11.7435   -9.8961   -4.0130 C   0  0  0  0  0  0  0  0  0  0  0  0
  -13.3296  -10.4242   -5.7765 N   0  0  0  0  0  0  0  0  0  0  0  0
  -13.4054   -9.5246   -6.7945 C   0  0  0  0  0  0  0  0  0  0  0  0
  -13.7194   -9.9200   -8.2299 C   0  0  0  0  0  0  0  0  0  0  0  0
  -13.2462   -8.3694   -6.4683 O   0  0  0  0  0  0  0  0  0  0  0  0
  -13.6857   -8.6413   -9.0950 C   0  0  0  0  0  0  0  0  0  0  0  0
   -7.6816   -9.8505   -4.0759 H   0  0  0  0  0  0  0  0  0  0  0  0
   -5.9421  -10.7220   -5.4608 H   0  0  0  0  0  0  0  0  0  0  0  0
   -4.0010  -11.7049   -4.4704 H   0  0  0  0  0  0  0  0  0  0  0  0
   -3.8008  -11.8130   -2.0898 H   0  0  0  0  0  0  0  0  0  0  0  0
   -5.5379  -10.9409   -0.7020 H   0  0  0  0  0  0  0  0  0  0  0  0
   -7.8815   -8.7933   -1.4044 H   0  0  0  0  0  0  0  0  0  0  0  0
   -7.7421  -10.1055   -0.4424 H   0  0  0  0  0  0  0  0  0  0  0  0
   -9.9749   -8.4483   -1.9923 H   0  0  0  0  0  0  0  0  0  0  0  0
  -12.3652   -9.4720   -0.7693 H   0  0  0  0  0  0  0  0  0  0  0  0
  -14.6035   -9.8928   -1.5102 H   0  0  0  0  0  0  0  0  0  0  0  0
  -15.0399  -10.3348   -3.8243 H   0  0  0  0  0  0  0  0  0  0  0  0
  -10.9957   -9.8721   -4.6765 H   0  0  0  0  0  0  0  0  0  0  0  0
  -13.4930  -11.3808   -6.0175 H   0  0  0  0  0  0  0  0  0  0  0  0
  -14.6269  -10.3373   -8.2763 H   0  0  0  0  0  0  0  0  0  0  0  0
  -13.0358  -10.5711   -8.5598 H   0  0  0  0  0  0  0  0  0  0  0  0
  -13.8896   -8.8763  -10.0453 H   0  0  0  0  0  0  0  0  0  0  0  0
  -14.3684   -7.9929   -8.7581 H   0  0  0  0  0  0  0  0  0  0  0  0
  -12.7773   -8.2267   -9.0417 H   0  0  0  0  0  0  0  0  0  0  0  0
  1  2  2  0  0  0  0
  1  6  1  0  0  0  0
  1 22  1  0  0  0  0
  2  3  1  0  0  0  0
  2 23  1  0  0  0  0
  3  4  2  0  0  0  0
  3 24  1  0  0  0  0
  4  5  1  0  0  0  0
  4 25  1  0  0  0  0
  5  6  2  0  0  0  0
  5 26  1  0  0  0  0
  6  7  1  0  0  0  0
  7  8  1  0  0  0  0
  7 27  1  0  0  0  0
  7 28  1  0  0  0  0
  8  9  1  0  0  0  0
  8 10  2  0  0  0  0
  9 11  1  0  0  0  0
  9 29  1  0  0  0  0
 11 12  2  0  0  0  0
 11 16  1  0  0  0  0
 12 13  1  0  0  0  0
 12 30  1  0  0  0  0
 13 14  2  0  0  0  0
 13 31  1  0  0  0  0
 14 15  1  0  0  0  0
 14 32  1  0  0  0  0
 15 16  2  0  0  0  0
 15 17  1  0  0  0  0
 16 33  1  0  0  0  0
 17 18  1  0  0  0  0
 17 34  1  0  0  0  0
 18 19  1  0  0  0  0
 18 20  2  0  0  0  0
 19 21  1  0  0  0  0
 19 35  1  0  0  0  0
 19 36  1  0  0  0  0
 21 37  1  0  0  0  0
 21 38  1  0  0  0  0
 21 39  1  0  0  0  0
M  END
>  <BIOSOLVEIT.HYDE_ESTIMATED_AFFINITY_LOWER_BOUNDARY [nM]>
55294.108512

>  <BIOSOLVEIT.HYDE_ESTIMATED_AFFINITY_UPPER_BOUNDARY [nM]>
5493796.605336

>  <BIOSOLVEIT.HYDE_LIGAND_EFFICIENCY range: ++, +, 0, -, -->
-

>  <BIOSOLVEIT.HYDE_LIGAND_LIPOPHILIC_EFFICIENCY range: ++, +, 0, -, -->
--

>  <BIOSOLVEIT.INTER_CLASH range: red, yellow, green>
green

>  <BIOSOLVEIT.INTRA_CLASH range: red, yellow, green>
green

>  <BIOSOLVEIT.LOGP>
3.2163

>  <BIOSOLVEIT.MOLECULAR WEIGHT>
282.341

>  <BIOSOLVEIT.MOLECULE_CHECKSUM>
LTE4LjYwMDg7MC44ODU3NTQ=

>  <BIOSOLVEIT.TORSION_QUALITY range: red, yellow, green, not rotatable>
red

>  <BIOSOLVEIT.TPSA>
58.2

$$$$
