PV-000117881128.****
 OpenBabel12172121453D
Hydescorer 1.1.2 b8048283
 45 47  0  0  0  0  0  0  0  0999 V2000
   -5.0566  -16.9222   -9.1785 C   0  0  0  0  0  0  0  0  0  0  0  0
   -4.3450  -15.7914   -8.7946 C   0  0  0  0  0  0  0  0  0  0  0  0
   -3.8553  -15.6608   -7.4865 C   0  0  0  0  0  0  0  0  0  0  0  0
   -4.1122  -16.6941   -6.5683 C   0  0  0  0  0  0  0  0  0  0  0  0
   -4.8241  -17.8249   -6.9566 C   0  0  0  0  0  0  0  0  0  0  0  0
   -5.2951  -17.9397   -8.2609 C   0  0  0  0  0  0  0  0  0  0  0  0
   -3.0990  -14.4603   -7.1090 C   0  0  0  0  0  0  0  0  0  0  0  0
   -3.7656  -13.2936   -6.8247 N   0  0  0  0  0  0  0  0  0  0  0  0
   -1.8795  -14.4305   -7.0239 O   0  0  0  0  0  0  0  0  0  0  0  0
   -3.0529  -12.0520   -6.4384 C   0  0  1  0  0  0  0  0  0  0  0  0
   -4.0432  -10.8929   -6.2125 C   0  0  0  0  0  0  0  0  0  0  0  0
   -4.6811  -11.3356   -4.9697 N   0  3  1  0  0  0  0  0  0  0  0  0
   -3.5661  -11.6840   -4.0796 C   0  0  0  0  0  0  0  0  0  0  0  0
   -2.5045  -12.2790   -5.0257 C   0  0  0  0  0  0  0  0  0  0  0  0
   -5.4932  -10.2413   -4.4092 C   0  0  0  0  0  0  0  0  0  0  0  0
   -6.3521  -10.8767   -3.2963 C   0  0  0  0  0  0  0  0  0  0  0  0
   -5.7844  -10.6249   -1.8937 C   0  0  0  0  0  0  0  0  0  0  0  0
   -6.9939  -10.7832   -0.9699 C   0  0  0  0  0  0  0  0  0  0  0  0
   -8.2318  -10.5433   -1.8417 C   0  0  0  0  0  0  0  0  0  0  0  0
   -7.7005  -10.1590   -3.2219 C   0  0  0  0  0  0  0  0  0  0  0  0
   -5.3972  -17.0041  -10.1151 H   0  0  0  0  0  0  0  0  0  0  0  0
   -4.1801  -15.0623   -9.4589 H   0  0  0  0  0  0  0  0  0  0  0  0
   -3.7804  -16.6157   -5.6282 H   0  0  0  0  0  0  0  0  0  0  0  0
   -4.9975  -18.5564   -6.2972 H   0  0  0  0  0  0  0  0  0  0  0  0
   -5.8052  -18.7538   -8.5385 H   0  0  0  0  0  0  0  0  0  0  0  0
   -4.7640  -13.2811   -6.8801 H   0  0  0  0  0  0  0  0  0  0  0  0
   -2.3325  -11.8120   -7.0892 H   0  0  0  0  0  0  0  0  0  0  0  0
   -4.7024  -10.8177   -6.9607 H   0  0  0  0  0  0  0  0  0  0  0  0
   -3.5707  -10.0194   -6.0955 H   0  0  0  0  0  0  0  0  0  0  0  0
   -3.8525  -12.3577   -3.3983 H   0  0  0  0  0  0  0  0  0  0  0  0
   -3.2136  -10.8708   -3.6166 H   0  0  0  0  0  0  0  0  0  0  0  0
   -1.6291  -11.8098   -4.9098 H   0  0  0  0  0  0  0  0  0  0  0  0
   -2.3851  -13.2560   -4.8488 H   0  0  0  0  0  0  0  0  0  0  0  0
   -6.0786   -9.8454   -5.1167 H   0  0  0  0  0  0  0  0  0  0  0  0
   -4.9025   -9.5297   -4.0288 H   0  0  0  0  0  0  0  0  0  0  0  0
   -6.4782  -11.8553   -3.4588 H   0  0  0  0  0  0  0  0  0  0  0  0
   -5.4031   -9.7030   -1.8250 H   0  0  0  0  0  0  0  0  0  0  0  0
   -5.0770  -11.2957   -1.6710 H   0  0  0  0  0  0  0  0  0  0  0  0
   -6.9554  -10.1115   -0.2301 H   0  0  0  0  0  0  0  0  0  0  0  0
   -7.0160  -11.7049   -0.5825 H   0  0  0  0  0  0  0  0  0  0  0  0
   -8.7861   -9.8021   -1.4631 H   0  0  0  0  0  0  0  0  0  0  0  0
   -8.7832  -11.3755   -1.9001 H   0  0  0  0  0  0  0  0  0  0  0  0
   -8.3155  -10.4774   -3.9433 H   0  0  0  0  0  0  0  0  0  0  0  0
   -7.5833   -9.1687   -3.2970 H   0  0  0  0  0  0  0  0  0  0  0  0
   -5.2522  -12.1386   -5.1403 H   0  0  0  0  0  0  0  0  0  0  0  0
  1  2  2  0  0  0  0
  1  6  1  0  0  0  0
  1 21  1  0  0  0  0
  2  3  1  0  0  0  0
  2 22  1  0  0  0  0
  3  4  2  0  0  0  0
  3  7  1  0  0  0  0
  4  5  1  0  0  0  0
  4 23  1  0  0  0  0
  5  6  2  0  0  0  0
  5 24  1  0  0  0  0
  6 25  1  0  0  0  0
  7  8  1  0  0  0  0
  7  9  2  0  0  0  0
  8 10  1  0  0  0  0
  8 26  1  0  0  0  0
 10 11  1  0  0  0  0
 10 14  1  0  0  0  0
 10 27  1  6  0  0  0
 11 12  1  0  0  0  0
 11 28  1  0  0  0  0
 11 29  1  0  0  0  0
 12 13  1  0  0  0  0
 12 15  1  0  0  0  0
 12 45  1  6  0  0  0
 13 14  1  0  0  0  0
 13 30  1  0  0  0  0
 13 31  1  0  0  0  0
 14 32  1  0  0  0  0
 14 33  1  0  0  0  0
 15 16  1  0  0  0  0
 15 34  1  0  0  0  0
 15 35  1  0  0  0  0
 16 17  1  0  0  0  0
 16 20  1  0  0  0  0
 16 36  1  0  0  0  0
 17 18  1  0  0  0  0
 17 37  1  0  0  0  0
 17 38  1  0  0  0  0
 18 19  1  0  0  0  0
 18 39  1  0  0  0  0
 18 40  1  0  0  0  0
 19 20  1  0  0  0  0
 19 41  1  0  0  0  0
 19 42  1  0  0  0  0
 20 43  1  0  0  0  0
 20 44  1  0  0  0  0
M  CHG  1  12   1
M  END
>  <BIOSOLVEIT.HYDE_ESTIMATED_AFFINITY_LOWER_BOUNDARY [nM]>
41022856.258517

>  <BIOSOLVEIT.HYDE_ESTIMATED_AFFINITY_UPPER_BOUNDARY [nM]>
4075863315.605302

>  <BIOSOLVEIT.HYDE_LIGAND_EFFICIENCY range: ++, +, 0, -, -->
--

>  <BIOSOLVEIT.HYDE_LIGAND_LIPOPHILIC_EFFICIENCY range: ++, +, 0, -, -->
--

>  <BIOSOLVEIT.INTER_CLASH range: red, yellow, green>
green

>  <BIOSOLVEIT.INTRA_CLASH range: red, yellow, green>
green

>  <BIOSOLVEIT.LOGP>
1.2638

>  <BIOSOLVEIT.MOLECULAR WEIGHT>
273.398

>  <BIOSOLVEIT.MOLECULE_CHECKSUM>
LTIuMjE2ODY7MC4xMTA4NDM=

>  <BIOSOLVEIT.TORSION_QUALITY range: red, yellow, green, not rotatable>
yellow

>  <BIOSOLVEIT.TPSA>
33.54

$$$$
