Z410195728.****
 OpenBabel12172121453D
Hydescorer 1.1.2 b8048283
 37 38  0  0  0  0  0  0  0  0999 V2000
   -3.3801  -16.5311    2.4389 C   0  0  0  0  0  0  0  0  0  0  0  0
   -3.3570  -15.1828    2.7873 C   0  0  0  0  0  0  0  0  0  0  0  0
   -4.5344  -14.4352    2.8169 C   0  0  0  0  0  0  0  0  0  0  0  0
   -5.7439  -15.0688    2.4880 C   0  0  0  0  0  0  0  0  0  0  0  0
   -5.7754  -16.4189    2.1331 C   0  0  0  0  0  0  0  0  0  0  0  0
   -4.5897  -17.1458    2.1124 C   0  0  0  0  0  0  0  0  0  0  0  0
   -4.6071  -18.8224    1.6723 Cl  0  0  0  0  0  0  0  0  0  0  0  0
   -4.4801  -12.9675    3.2070 C   0  0  0  0  0  0  0  0  0  0  0  0
   -6.9322  -14.2973    2.4912 N   0  0  0  0  0  0  0  0  0  0  0  0
   -8.0684  -14.5598    3.1967 C   0  0  0  0  0  0  0  0  0  0  0  0
   -9.0377  -13.6342    2.9910 N   0  0  0  0  0  0  0  0  0  0  0  0
   -8.2107  -15.5180    3.9429 O   0  0  0  0  0  0  0  0  0  0  0  0
  -10.3430  -13.7221    3.6515 C   0  0  0  0  0  0  0  0  0  0  0  0
  -11.0836  -14.8975    2.9930 C   0  0  0  0  0  0  0  0  0  0  0  0
  -12.4723  -15.1839    3.5742 C   0  0  0  0  0  0  0  0  0  0  0  0
  -13.2056  -15.9716    2.4844 C   0  0  0  0  0  0  0  0  0  0  0  0
  -12.4336  -15.7160    1.1846 C   0  0  0  0  0  0  0  0  0  0  0  0
  -11.4148  -14.6285    1.5246 C   0  0  0  0  0  0  0  0  0  0  0  0
   -2.5305  -17.0583    2.4227 H   0  0  0  0  0  0  0  0  0  0  0  0
   -2.4876  -14.7462    3.0186 H   0  0  0  0  0  0  0  0  0  0  0  0
   -6.6417  -16.8587    1.8962 H   0  0  0  0  0  0  0  0  0  0  0  0
   -5.4018  -12.5806    3.1784 H   0  0  0  0  0  0  0  0  0  0  0  0
   -4.1112  -12.8820    4.1325 H   0  0  0  0  0  0  0  0  0  0  0  0
   -3.8915  -12.4739    2.5666 H   0  0  0  0  0  0  0  0  0  0  0  0
   -6.9379  -13.4778    1.9181 H   0  0  0  0  0  0  0  0  0  0  0  0
   -8.8570  -12.8703    2.3715 H   0  0  0  0  0  0  0  0  0  0  0  0
  -10.8551  -12.8733    3.5202 H   0  0  0  0  0  0  0  0  0  0  0  0
  -10.2249  -13.8921    4.6299 H   0  0  0  0  0  0  0  0  0  0  0  0
  -10.5210  -15.7216    3.0594 H   0  0  0  0  0  0  0  0  0  0  0  0
  -12.9527  -14.3297    3.7735 H   0  0  0  0  0  0  0  0  0  0  0  0
  -12.3978  -15.7273    4.4104 H   0  0  0  0  0  0  0  0  0  0  0  0
  -14.1482  -15.6492    2.3975 H   0  0  0  0  0  0  0  0  0  0  0  0
  -13.2059  -16.9477    2.7019 H   0  0  0  0  0  0  0  0  0  0  0  0
  -13.0535  -15.4020    0.4655 H   0  0  0  0  0  0  0  0  0  0  0  0
  -11.9690  -16.5490    0.8840 H   0  0  0  0  0  0  0  0  0  0  0  0
  -10.5985  -14.7118    0.9529 H   0  0  0  0  0  0  0  0  0  0  0  0
  -11.8115  -13.7179    1.4086 H   0  0  0  0  0  0  0  0  0  0  0  0
  1  2  2  0  0  0  0
  1  6  1  0  0  0  0
  1 19  1  0  0  0  0
  2  3  1  0  0  0  0
  2 20  1  0  0  0  0
  3  4  2  0  0  0  0
  3  8  1  0  0  0  0
  4  5  1  0  0  0  0
  4  9  1  0  0  0  0
  5  6  2  0  0  0  0
  5 21  1  0  0  0  0
  6  7  1  0  0  0  0
  8 22  1  0  0  0  0
  8 23  1  0  0  0  0
  8 24  1  0  0  0  0
  9 10  1  0  0  0  0
  9 25  1  0  0  0  0
 10 11  1  0  0  0  0
 10 12  2  0  0  0  0
 11 13  1  0  0  0  0
 11 26  1  0  0  0  0
 13 14  1  0  0  0  0
 13 27  1  0  0  0  0
 13 28  1  0  0  0  0
 14 15  1  0  0  0  0
 14 18  1  0  0  0  0
 14 29  1  0  0  0  0
 15 16  1  0  0  0  0
 15 30  1  0  0  0  0
 15 31  1  0  0  0  0
 16 17  1  0  0  0  0
 16 32  1  0  0  0  0
 16 33  1  0  0  0  0
 17 18  1  0  0  0  0
 17 34  1  0  0  0  0
 17 35  1  0  0  0  0
 18 36  1  0  0  0  0
 18 37  1  0  0  0  0
M  END
>  <BIOSOLVEIT.HYDE_ESTIMATED_AFFINITY_LOWER_BOUNDARY [nM]>
3115430092.247131

>  <BIOSOLVEIT.HYDE_ESTIMATED_AFFINITY_UPPER_BOUNDARY [nM]>
309536399545.228943

>  <BIOSOLVEIT.HYDE_LIGAND_EFFICIENCY range: ++, +, 0, -, -->
--

>  <BIOSOLVEIT.HYDE_LIGAND_LIPOPHILIC_EFFICIENCY range: ++, +, 0, -, -->
--

>  <BIOSOLVEIT.INTER_CLASH range: red, yellow, green>
green

>  <BIOSOLVEIT.INTRA_CLASH range: red, yellow, green>
green

>  <BIOSOLVEIT.LOGP>
3.96012

>  <BIOSOLVEIT.MOLECULAR WEIGHT>
266.77

>  <BIOSOLVEIT.MOLECULE_CHECKSUM>
OC41MTcwMTsw

>  <BIOSOLVEIT.TORSION_QUALITY range: red, yellow, green, not rotatable>
green

>  <BIOSOLVEIT.TPSA>
41.13

$$$$
