Z1551029475.****
 OpenBabel12172121453D
Hydescorer 1.1.2 b8048283
 39 41  0  0  0  0  0  0  0  0999 V2000
   -3.5131  -16.5988    2.2212 C   0  0  0  0  0  0  0  0  0  0  0  0
   -2.4228  -17.3721    2.6183 C   0  0  0  0  0  0  0  0  0  0  0  0
   -1.4210  -16.8185    3.4154 C   0  0  0  0  0  0  0  0  0  0  0  0
   -1.5241  -15.4793    3.8053 C   0  0  0  0  0  0  0  0  0  0  0  0
   -2.5874  -14.6828    3.3897 C   0  0  0  0  0  0  0  0  0  0  0  0
   -3.5896  -15.2629    2.6189 C   0  0  0  0  0  0  0  0  0  0  0  0
   -4.6901  -14.4865    2.2145 N   0  0  0  0  0  0  0  0  0  0  0  0
   -5.7321  -14.0822    2.9960 C   0  0  0  0  0  0  0  0  0  0  0  0
   -5.6718  -14.4340    4.1525 O   0  0  0  0  0  0  0  0  0  0  0  0
   -6.8842  -13.2398    2.4680 C   0  0  0  0  0  0  0  0  0  0  0  0
   -0.5379  -14.9063    4.6809 N   0  0  0  0  0  0  0  0  0  0  0  0
   -0.0373  -13.6541    4.6342 C   0  0  0  0  0  0  0  0  0  0  0  0
    0.7670  -13.4652    5.6387 N   0  0  0  0  0  0  0  0  0  0  0  0
    0.7961  -14.6438    6.3574 N   0  0  0  0  0  0  0  0  0  0  0  0
    0.0176  -15.4866    5.7709 C   0  0  0  0  0  0  0  0  0  0  0  0
   -0.2492  -16.9123    6.2056 C   0  0  0  0  0  0  0  0  0  0  0  0
   -0.4424  -12.5095    3.3820 S   0  0  0  0  0  0  0  0  0  0  0  0
   -8.2044  -13.9458    2.7729 C   0  0  0  0  0  0  0  0  0  0  0  0
   -8.6978  -14.0182    4.0781 C   0  0  0  0  0  0  0  0  0  0  0  0
   -9.9218  -14.5990    4.3838 C   0  0  0  0  0  0  0  0  0  0  0  0
  -10.6791  -15.1497    3.3561 C   0  0  0  0  0  0  0  0  0  0  0  0
  -10.2000  -15.1227    2.0461 C   0  0  0  0  0  0  0  0  0  0  0  0
   -8.9675  -14.5312    1.7573 C   0  0  0  0  0  0  0  0  0  0  0  0
   -7.9773  -13.4981    5.0996 F   0  0  0  0  0  0  0  0  0  0  0  0
  -11.2283  -15.8808    0.6528 Br  0  0  0  0  0  0  0  0  0  0  0  0
   -4.2347  -16.9982    1.6558 H   0  0  0  0  0  0  0  0  0  0  0  0
   -2.3589  -18.3276    2.3303 H   0  0  0  0  0  0  0  0  0  0  0  0
   -0.6396  -17.3717    3.7042 H   0  0  0  0  0  0  0  0  0  0  0  0
   -2.6299  -13.7154    3.6398 H   0  0  0  0  0  0  0  0  0  0  0  0
   -4.7107  -14.2018    1.2560 H   0  0  0  0  0  0  0  0  0  0  0  0
   -6.7878  -13.1235    1.4795 H   0  0  0  0  0  0  0  0  0  0  0  0
   -6.8739  -12.3436    2.9116 H   0  0  0  0  0  0  0  0  0  0  0  0
    0.2728  -17.1112    7.0351 H   0  0  0  0  0  0  0  0  0  0  0  0
   -1.2252  -17.0273    6.3903 H   0  0  0  0  0  0  0  0  0  0  0  0
    0.0286  -17.5401    5.4784 H   0  0  0  0  0  0  0  0  0  0  0  0
  -10.2527  -14.6207    5.3272 H   0  0  0  0  0  0  0  0  0  0  0  0
  -11.5666  -15.5649    3.5558 H   0  0  0  0  0  0  0  0  0  0  0  0
   -8.6281  -14.5265    0.8167 H   0  0  0  0  0  0  0  0  0  0  0  0
    1.2686  -12.6264    5.8503 H   0  0  0  0  0  0  0  0  0  0  0  0
  1  2  2  0  0  0  0
  1  6  1  0  0  0  0
  1 26  1  0  0  0  0
  2  3  1  0  0  0  0
  2 27  1  0  0  0  0
  3  4  2  0  0  0  0
  3 28  1  0  0  0  0
  4  5  1  0  0  0  0
  4 11  1  0  0  0  0
  5  6  2  0  0  0  0
  5 29  1  0  0  0  0
  6  7  1  0  0  0  0
  7  8  1  0  0  0  0
  7 30  1  0  0  0  0
  8  9  2  0  0  0  0
  8 10  1  0  0  0  0
 10 18  1  0  0  0  0
 10 31  1  0  0  0  0
 10 32  1  0  0  0  0
 11 12  1  0  0  0  0
 11 15  1  0  0  0  0
 12 13  1  0  0  0  0
 12 17  2  0  0  0  0
 13 14  1  0  0  0  0
 13 39  1  0  0  0  0
 14 15  2  0  0  0  0
 15 16  1  0  0  0  0
 16 33  1  0  0  0  0
 16 34  1  0  0  0  0
 16 35  1  0  0  0  0
 18 19  2  0  0  0  0
 18 23  1  0  0  0  0
 19 20  1  0  0  0  0
 19 24  1  0  0  0  0
 20 21  2  0  0  0  0
 20 36  1  0  0  0  0
 21 22  1  0  0  0  0
 21 37  1  0  0  0  0
 22 23  2  0  0  0  0
 22 25  1  0  0  0  0
 23 38  1  0  0  0  0
M  END
>  <BIOSOLVEIT.HYDE_ESTIMATED_AFFINITY_LOWER_BOUNDARY [nM]>
4534999397.450507

>  <BIOSOLVEIT.HYDE_ESTIMATED_AFFINITY_UPPER_BOUNDARY [nM]>
450579003175.160767

>  <BIOSOLVEIT.HYDE_LIGAND_EFFICIENCY range: ++, +, 0, -, -->
--

>  <BIOSOLVEIT.HYDE_LIGAND_LIPOPHILIC_EFFICIENCY range: ++, +, 0, -, -->
--

>  <BIOSOLVEIT.INTER_CLASH range: red, yellow, green>
green

>  <BIOSOLVEIT.INTRA_CLASH range: red, yellow, green>
yellow

>  <BIOSOLVEIT.LOGP>
3.7973

>  <BIOSOLVEIT.MOLECULAR WEIGHT>
421.292

>  <BIOSOLVEIT.MOLECULE_CHECKSUM>
OS40NDc3NTsw

>  <BIOSOLVEIT.TORSION_QUALITY range: red, yellow, green, not rotatable>
yellow

>  <BIOSOLVEIT.TPSA>
56.73

$$$$
