Z297320586.****
 OpenBabel12172121453D
Hydescorer 1.1.2 b8048283
 33 34  0  0  0  0  0  0  0  0999 V2000
   -5.1028  -10.5171   -5.0413 C   0  0  0  0  0  0  0  0  0  0  0  0
   -4.2190  -10.7318   -3.9919 C   0  0  0  0  0  0  0  0  0  0  0  0
   -4.7357  -11.0008   -2.7277 C   0  0  0  0  0  0  0  0  0  0  0  0
   -6.1163  -11.0449   -2.5343 C   0  0  0  0  0  0  0  0  0  0  0  0
   -7.0078  -10.8126   -3.6020 C   0  0  0  0  0  0  0  0  0  0  0  0
   -6.4782  -10.5551   -4.8737 C   0  0  0  0  0  0  0  0  0  0  0  0
   -4.6019  -10.2610   -6.2701 F   0  0  0  0  0  0  0  0  0  0  0  0
   -8.4610  -10.8409   -3.4133 C   0  0  0  0  0  0  0  0  0  0  0  0
   -9.2463  -11.0481   -4.3290 O   0  0  0  0  0  0  0  0  0  0  0  0
   -8.9633  -10.5741   -2.1567 N   0  0  0  0  0  0  0  0  0  0  0  0
  -10.3316  -10.5515   -1.7670 C   0  0  0  0  0  0  0  0  0  0  0  0
  -10.8401  -11.6280   -1.0297 C   0  0  0  0  0  0  0  0  0  0  0  0
  -12.1663  -11.6711   -0.6176 C   0  0  0  0  0  0  0  0  0  0  0  0
  -13.0156  -10.6197   -0.9590 C   0  0  0  0  0  0  0  0  0  0  0  0
  -12.5186   -9.5525   -1.7172 C   0  0  0  0  0  0  0  0  0  0  0  0
  -11.1818   -9.5034   -2.1245 C   0  0  0  0  0  0  0  0  0  0  0  0
  -10.0297  -12.6622   -0.7081 F   0  0  0  0  0  0  0  0  0  0  0  0
  -13.4115   -8.5044   -2.0386 N   0  0  0  0  0  0  0  0  0  0  0  0
  -13.4629   -7.8365   -3.2301 C   0  0  0  0  0  0  0  0  0  0  0  0
  -12.7258   -8.1303   -4.1455 O   0  0  0  0  0  0  0  0  0  0  0  0
  -14.4993   -6.7534   -3.3453 C   0  0  0  0  0  0  0  0  0  0  0  0
   -3.2310  -10.6939   -4.1415 H   0  0  0  0  0  0  0  0  0  0  0  0
   -4.1173  -11.1624   -1.9585 H   0  0  0  0  0  0  0  0  0  0  0  0
   -6.4797  -11.2442   -1.6243 H   0  0  0  0  0  0  0  0  0  0  0  0
   -7.0863  -10.4003   -5.6522 H   0  0  0  0  0  0  0  0  0  0  0  0
   -8.2929  -10.3749   -1.4418 H   0  0  0  0  0  0  0  0  0  0  0  0
  -12.5066  -12.4451   -0.0837 H   0  0  0  0  0  0  0  0  0  0  0  0
  -13.9715  -10.6276   -0.6650 H   0  0  0  0  0  0  0  0  0  0  0  0
  -10.8412   -8.7318   -2.6618 H   0  0  0  0  0  0  0  0  0  0  0  0
  -14.0626   -8.2273   -1.3320 H   0  0  0  0  0  0  0  0  0  0  0  0
  -14.4460   -6.3361   -4.2526 H   0  0  0  0  0  0  0  0  0  0  0  0
  -15.4090   -7.1469   -3.2124 H   0  0  0  0  0  0  0  0  0  0  0  0
  -14.3324   -6.0566   -2.6476 H   0  0  0  0  0  0  0  0  0  0  0  0
  1  2  2  0  0  0  0
  1  6  1  0  0  0  0
  1  7  1  0  0  0  0
  2  3  1  0  0  0  0
  2 22  1  0  0  0  0
  3  4  2  0  0  0  0
  3 23  1  0  0  0  0
  4  5  1  0  0  0  0
  4 24  1  0  0  0  0
  5  6  2  0  0  0  0
  5  8  1  0  0  0  0
  6 25  1  0  0  0  0
  8  9  2  0  0  0  0
  8 10  1  0  0  0  0
 10 11  1  0  0  0  0
 10 26  1  0  0  0  0
 11 12  2  0  0  0  0
 11 16  1  0  0  0  0
 12 13  1  0  0  0  0
 12 17  1  0  0  0  0
 13 14  2  0  0  0  0
 13 27  1  0  0  0  0
 14 15  1  0  0  0  0
 14 28  1  0  0  0  0
 15 16  2  0  0  0  0
 15 18  1  0  0  0  0
 16 29  1  0  0  0  0
 18 19  1  0  0  0  0
 18 30  1  0  0  0  0
 19 20  2  0  0  0  0
 19 21  1  0  0  0  0
 21 31  1  0  0  0  0
 21 32  1  0  0  0  0
 21 33  1  0  0  0  0
M  END
>  <BIOSOLVEIT.HYDE_ESTIMATED_AFFINITY_LOWER_BOUNDARY [nM]>
7051701.363304

>  <BIOSOLVEIT.HYDE_ESTIMATED_AFFINITY_UPPER_BOUNDARY [nM]>
700628223.402378

>  <BIOSOLVEIT.HYDE_LIGAND_EFFICIENCY range: ++, +, 0, -, -->
--

>  <BIOSOLVEIT.HYDE_LIGAND_LIPOPHILIC_EFFICIENCY range: ++, +, 0, -, -->
--

>  <BIOSOLVEIT.INTER_CLASH range: red, yellow, green>
green

>  <BIOSOLVEIT.INTRA_CLASH range: red, yellow, green>
green

>  <BIOSOLVEIT.LOGP>
3.1755

>  <BIOSOLVEIT.MOLECULAR WEIGHT>
290.268

>  <BIOSOLVEIT.MOLECULE_CHECKSUM>
LTYuNTgxOTY7MC4zMTM0Mjc=

>  <BIOSOLVEIT.TORSION_QUALITY range: red, yellow, green, not rotatable>
yellow

>  <BIOSOLVEIT.TPSA>
58.2

$$$$
