Z279577954.****
 OpenBabel12172121453D
Hydescorer 1.1.2 b8048283
 33 34  0  0  0  0  0  0  0  0999 V2000
  -12.9075  -10.6908   -0.9083 C   0  0  0  0  0  0  0  0  0  0  0  0
  -12.0980  -11.7604   -0.5474 C   0  0  0  0  0  0  0  0  0  0  0  0
  -10.7663  -11.7681   -0.9561 C   0  0  0  0  0  0  0  0  0  0  0  0
  -10.2724  -10.6939   -1.7088 C   0  0  0  0  0  0  0  0  0  0  0  0
  -11.0879   -9.6227   -2.0797 C   0  0  0  0  0  0  0  0  0  0  0  0
  -12.4270   -9.6254   -1.6811 C   0  0  0  0  0  0  0  0  0  0  0  0
  -13.3406   -8.5753   -2.0022 N   0  0  0  0  0  0  0  0  0  0  0  0
  -13.4264   -7.8293   -3.1465 C   0  0  0  0  0  0  0  0  0  0  0  0
  -14.5107   -6.7881   -3.1746 C   0  0  0  0  0  0  0  0  0  0  0  0
  -12.6847   -8.0144   -4.0836 O   0  0  0  0  0  0  0  0  0  0  0  0
  -14.1957  -10.6895   -0.4952 F   0  0  0  0  0  0  0  0  0  0  0  0
   -8.9282  -10.6744   -2.1336 N   0  0  0  0  0  0  0  0  0  0  0  0
   -8.4502  -10.8265   -3.4080 C   0  0  0  0  0  0  0  0  0  0  0  0
   -7.0192  -10.7873   -3.7300 C   0  0  0  0  0  0  0  0  0  0  0  0
   -9.3216  -10.9946   -4.2457 O   0  0  0  0  0  0  0  0  0  0  0  0
   -6.6107  -10.5389   -5.0479 C   0  0  0  0  0  0  0  0  0  0  0  0
   -5.2607  -10.5077   -5.3781 C   0  0  0  0  0  0  0  0  0  0  0  0
   -4.2979  -10.7154   -4.3945 C   0  0  0  0  0  0  0  0  0  0  0  0
   -4.6870  -10.9485   -3.0787 C   0  0  0  0  0  0  0  0  0  0  0  0
   -6.0365  -10.9788   -2.7465 C   0  0  0  0  0  0  0  0  0  0  0  0
  -12.4657  -12.5138   -0.0023 H   0  0  0  0  0  0  0  0  0  0  0  0
  -10.1686  -12.5325   -0.7147 H   0  0  0  0  0  0  0  0  0  0  0  0
  -10.7197   -8.8667   -2.6211 H   0  0  0  0  0  0  0  0  0  0  0  0
  -14.0102   -8.3548   -1.2930 H   0  0  0  0  0  0  0  0  0  0  0  0
  -14.4852   -6.3039   -4.0492 H   0  0  0  0  0  0  0  0  0  0  0  0
  -15.4006   -7.2306   -3.0644 H   0  0  0  0  0  0  0  0  0  0  0  0
  -14.3673   -6.1373   -2.4290 H   0  0  0  0  0  0  0  0  0  0  0  0
   -8.2425  -10.5325   -1.4197 H   0  0  0  0  0  0  0  0  0  0  0  0
   -7.2975  -10.3825   -5.7577 H   0  0  0  0  0  0  0  0  0  0  0  0
   -4.9812  -10.3360   -6.3228 H   0  0  0  0  0  0  0  0  0  0  0  0
   -3.3270  -10.6971   -4.6332 H   0  0  0  0  0  0  0  0  0  0  0  0
   -3.9951  -11.0942   -2.3715 H   0  0  0  0  0  0  0  0  0  0  0  0
   -6.3096  -11.1387   -1.7979 H   0  0  0  0  0  0  0  0  0  0  0  0
  1  2  2  0  0  0  0
  1  6  1  0  0  0  0
  1 11  1  0  0  0  0
  2  3  1  0  0  0  0
  2 21  1  0  0  0  0
  3  4  2  0  0  0  0
  3 22  1  0  0  0  0
  4  5  1  0  0  0  0
  4 12  1  0  0  0  0
  5  6  2  0  0  0  0
  5 23  1  0  0  0  0
  6  7  1  0  0  0  0
  7  8  1  0  0  0  0
  7 24  1  0  0  0  0
  8  9  1  0  0  0  0
  8 10  2  0  0  0  0
  9 25  1  0  0  0  0
  9 26  1  0  0  0  0
  9 27  1  0  0  0  0
 12 13  1  0  0  0  0
 12 28  1  0  0  0  0
 13 14  1  0  0  0  0
 13 15  2  0  0  0  0
 14 16  2  0  0  0  0
 14 20  1  0  0  0  0
 16 17  1  0  0  0  0
 16 29  1  0  0  0  0
 17 18  2  0  0  0  0
 17 30  1  0  0  0  0
 18 19  1  0  0  0  0
 18 31  1  0  0  0  0
 19 20  2  0  0  0  0
 19 32  1  0  0  0  0
 20 33  1  0  0  0  0
M  END
>  <BIOSOLVEIT.HYDE_ESTIMATED_AFFINITY_LOWER_BOUNDARY [nM]>
2337535.143953

>  <BIOSOLVEIT.HYDE_ESTIMATED_AFFINITY_UPPER_BOUNDARY [nM]>
232247937.153249

>  <BIOSOLVEIT.HYDE_LIGAND_EFFICIENCY range: ++, +, 0, -, -->
--

>  <BIOSOLVEIT.HYDE_LIGAND_LIPOPHILIC_EFFICIENCY range: ++, +, 0, -, -->
--

>  <BIOSOLVEIT.INTER_CLASH range: red, yellow, green>
green

>  <BIOSOLVEIT.INTRA_CLASH range: red, yellow, green>
green

>  <BIOSOLVEIT.LOGP>
3.0364

>  <BIOSOLVEIT.MOLECULAR WEIGHT>
272.278

>  <BIOSOLVEIT.MOLECULE_CHECKSUM>
LTkuMzE5MTU7MC40NjU5NTg=

>  <BIOSOLVEIT.TORSION_QUALITY range: red, yellow, green, not rotatable>
yellow

>  <BIOSOLVEIT.TPSA>
58.2

$$$$
