m_22bba____14316652____9279318
 OpenBabel12172121453D
Hydescorer 1.1.2 b8048283
 57 59  0  0  0  0  0  0  0  0999 V2000
   -9.3066  -13.9446    0.2892 Cl  0  0  0  0  0  0  0  0  0  0  0  0
   -8.6007  -14.3238    1.8291 C   0  0  0  0  0  0  0  0  0  0  0  0
   -9.3492  -14.3953    3.0321 C   0  0  0  0  0  0  0  0  0  0  0  0
   -8.8086  -14.7582    4.1922 N   0  0  0  0  0  0  0  0  0  0  0  0
   -7.5030  -15.0383    4.2360 C   0  0  0  0  0  0  0  0  0  0  0  0
   -6.6733  -14.9748    3.1068 C   0  0  0  0  0  0  0  0  0  0  0  0
   -7.2450  -14.6040    1.8780 C   0  0  0  0  0  0  0  0  0  0  0  0
   -5.2561  -15.2962    3.2540 C   0  0  0  0  0  0  0  0  0  0  0  0
   -4.8042  -15.8161    4.2638 O   0  0  0  0  0  0  0  0  0  0  0  0
   -4.3831  -15.0208    2.2284 N   0  0  0  0  0  0  0  0  0  0  0  0
   -2.9236  -15.2842    2.2206 C   0  0  1  0  0  0  0  0  0  0  0  0
   -2.1785  -14.4010    3.2630 C   0  0  2  0  0  0  0  0  0  0  0  0
   -2.3376  -13.0911    2.8793 F   0  0  0  0  0  0  0  0  0  0  0  0
   -0.6734  -14.7102    3.1524 C   0  0  0  0  0  0  0  0  0  0  0  0
   -0.5241  -16.1683    3.3603 N   0  0  0  0  0  0  0  0  0  0  0  0
   -0.0120  -16.6449    4.5474 C   0  0  0  0  0  0  0  0  0  0  0  0
    0.1997  -15.9108    5.5018 O   0  0  0  0  0  0  0  0  0  0  0  0
    0.2375  -17.9703    4.5822 O   0  0  0  0  0  0  0  0  0  0  0  0
    1.5188  -18.6293    4.5877 C   0  0  0  0  0  0  0  0  0  0  0  0
    1.2462  -20.1345    4.6171 C   0  0  0  0  0  0  0  0  0  0  0  0
    2.3125  -18.2558    5.8453 C   0  0  0  0  0  0  0  0  0  0  0  0
    2.2999  -18.3034    3.3093 C   0  0  0  0  0  0  0  0  0  0  0  0
   -1.1674  -17.0421    2.3627 C   0  0  0  0  0  0  0  0  0  0  0  0
   -2.6774  -16.7799    2.5114 C   0  0  0  0  0  0  0  0  0  0  0  0
  -10.6996  -14.1254    3.1457 N   0  0  0  0  0  0  0  0  0  0  0  0
  -11.6946  -15.0691    3.4634 C   0  0  0  0  0  0  0  0  0  0  0  0
  -12.3331  -15.8020    2.4596 C   0  0  0  0  0  0  0  0  0  0  0  0
  -13.3204  -16.7190    2.8050 C   0  0  0  0  0  0  0  0  0  0  0  0
  -13.6718  -16.8951    4.1466 C   0  0  0  0  0  0  0  0  0  0  0  0
  -14.9006  -18.0352    4.5742 Cl  0  0  0  0  0  0  0  0  0  0  0  0
  -13.0349  -16.1516    5.1446 C   0  0  0  0  0  0  0  0  0  0  0  0
  -12.0456  -15.2349    4.8042 C   0  0  0  0  0  0  0  0  0  0  0  0
   -7.1000  -15.3047    5.1115 H   0  0  0  0  0  0  0  0  0  0  0  0
   -6.6829  -14.5435    1.0531 H   0  0  0  0  0  0  0  0  0  0  0  0
   -4.7701  -14.6018    1.4070 H   0  0  0  0  0  0  0  0  0  0  0  0
   -2.5664  -15.0733    1.3107 H   0  0  0  0  0  0  0  0  0  0  0  0
   -2.5197  -14.5577    4.1897 H   0  0  0  0  0  0  0  0  0  0  0  0
   -0.1658  -14.2081    3.8526 H   0  0  0  0  0  0  0  0  0  0  0  0
   -0.3343  -14.4543    2.2471 H   0  0  0  0  0  0  0  0  0  0  0  0
    2.1145  -20.6306    4.6218 H   0  0  0  0  0  0  0  0  0  0  0  0
    0.7271  -20.3633    5.4407 H   0  0  0  0  0  0  0  0  0  0  0  0
    0.7186  -20.3936    3.8081 H   0  0  0  0  0  0  0  0  0  0  0  0
    3.1972  -18.7216    5.8316 H   0  0  0  0  0  0  0  0  0  0  0  0
    2.4571  -17.2665    5.8667 H   0  0  0  0  0  0  0  0  0  0  0  0
    1.8009  -18.5355    6.6577 H   0  0  0  0  0  0  0  0  0  0  0  0
    3.1847  -18.7688    3.3314 H   0  0  0  0  0  0  0  0  0  0  0  0
    1.7801  -18.6131    2.5131 H   0  0  0  0  0  0  0  0  0  0  0  0
    2.4442  -17.3157    3.2495 H   0  0  0  0  0  0  0  0  0  0  0  0
   -0.9579  -18.0019    2.5500 H   0  0  0  0  0  0  0  0  0  0  0  0
   -0.8598  -16.8075    1.4406 H   0  0  0  0  0  0  0  0  0  0  0  0
   -3.1866  -17.3421    1.8598 H   0  0  0  0  0  0  0  0  0  0  0  0
   -2.9713  -16.9990    3.4417 H   0  0  0  0  0  0  0  0  0  0  0  0
  -10.9941  -13.1826    2.9894 H   0  0  0  0  0  0  0  0  0  0  0  0
  -12.0823  -15.6684    1.5008 H   0  0  0  0  0  0  0  0  0  0  0  0
  -13.7788  -17.2521    2.0939 H   0  0  0  0  0  0  0  0  0  0  0  0
  -13.2904  -16.2788    6.1030 H   0  0  0  0  0  0  0  0  0  0  0  0
  -11.5894  -14.6988    5.5145 H   0  0  0  0  0  0  0  0  0  0  0  0
  1  2  1  0  0  0  0
  2  3  2  0  0  0  0
  2  7  1  0  0  0  0
  3  4  1  0  0  0  0
  3 25  1  0  0  0  0
  4  5  2  0  0  0  0
  5  6  1  0  0  0  0
  5 33  1  0  0  0  0
  6  7  2  0  0  0  0
  6  8  1  0  0  0  0
  7 34  1  0  0  0  0
  8  9  2  0  0  0  0
  8 10  1  0  0  0  0
 10 11  1  0  0  0  0
 10 35  1  0  0  0  0
 11 12  1  0  0  0  0
 11 24  1  0  0  0  0
 11 36  1  6  0  0  0
 12 13  1  0  0  0  0
 12 14  1  0  0  0  0
 12 37  1  1  0  0  0
 14 15  1  0  0  0  0
 14 38  1  0  0  0  0
 14 39  1  0  0  0  0
 15 16  1  0  0  0  0
 15 23  1  0  0  0  0
 16 17  2  0  0  0  0
 16 18  1  0  0  0  0
 18 19  1  0  0  0  0
 19 20  1  0  0  0  0
 19 21  1  0  0  0  0
 19 22  1  0  0  0  0
 20 40  1  0  0  0  0
 20 41  1  0  0  0  0
 20 42  1  0  0  0  0
 21 43  1  0  0  0  0
 21 44  1  0  0  0  0
 21 45  1  0  0  0  0
 22 46  1  0  0  0  0
 22 47  1  0  0  0  0
 22 48  1  0  0  0  0
 23 24  1  0  0  0  0
 23 49  1  0  0  0  0
 23 50  1  0  0  0  0
 24 51  1  0  0  0  0
 24 52  1  0  0  0  0
 25 26  1  0  0  0  0
 25 53  1  0  0  0  0
 26 27  2  0  0  0  0
 26 32  1  0  0  0  0
 27 28  1  0  0  0  0
 27 54  1  0  0  0  0
 28 29  2  0  0  0  0
 28 55  1  0  0  0  0
 29 30  1  0  0  0  0
 29 31  1  0  0  0  0
 31 32  2  0  0  0  0
 31 56  1  0  0  0  0
 32 57  1  0  0  0  0
M  END
>  <BIOSOLVEIT.HYDE_ESTIMATED_AFFINITY_LOWER_BOUNDARY [nM]>
581234467.832654

>  <BIOSOLVEIT.HYDE_ESTIMATED_AFFINITY_UPPER_BOUNDARY [nM]>
57749080909.319000

>  <BIOSOLVEIT.HYDE_LIGAND_EFFICIENCY range: ++, +, 0, -, -->
--

>  <BIOSOLVEIT.HYDE_LIGAND_LIPOPHILIC_EFFICIENCY range: ++, +, 0, -, -->
--

>  <BIOSOLVEIT.INTER_CLASH range: red, yellow, green>
green

>  <BIOSOLVEIT.INTRA_CLASH range: red, yellow, green>
green

>  <BIOSOLVEIT.LOGP>
5.2093

>  <BIOSOLVEIT.MOLECULAR WEIGHT>
483.369

>  <BIOSOLVEIT.MOLECULE_CHECKSUM>
NC4zNTQ5Mjsw

>  <BIOSOLVEIT.TORSION_QUALITY range: red, yellow, green, not rotatable>
red

>  <BIOSOLVEIT.TPSA>
83.56

$$$$
