m_22bba____14316652____9279318
 OpenBabel12172121453D
Hydescorer 1.1.2 b8048283
 57 59  0  0  0  0  0  0  0  0999 V2000
   -5.2753  -10.5277   -5.9744 Cl  0  0  0  0  0  0  0  0  0  0  0  0
   -5.5541  -10.6358   -4.2644 C   0  0  0  0  0  0  0  0  0  0  0  0
   -4.5563  -11.0313   -3.3367 C   0  0  0  0  0  0  0  0  0  0  0  0
   -4.7624  -11.0396   -2.0224 N   0  0  0  0  0  0  0  0  0  0  0  0
   -5.9647  -10.6909   -1.5558 C   0  0  0  0  0  0  0  0  0  0  0  0
   -7.0230  -10.3065   -2.3923 C   0  0  0  0  0  0  0  0  0  0  0  0
   -6.8034  -10.2849   -3.7799 C   0  0  0  0  0  0  0  0  0  0  0  0
   -8.3034   -9.9453   -1.7891 C   0  0  0  0  0  0  0  0  0  0  0  0
   -8.4641   -8.9048   -1.1681 O   0  0  0  0  0  0  0  0  0  0  0  0
   -9.3820  -10.7873   -1.9206 N   0  0  0  0  0  0  0  0  0  0  0  0
  -10.7420  -10.5673   -1.3713 C   0  0  1  0  0  0  0  0  0  0  0  0
  -11.7710  -10.2639   -2.4987 C   0  0  2  0  0  0  0  0  0  0  0  0
  -11.3958   -9.0811   -3.0891 F   0  0  0  0  0  0  0  0  0  0  0  0
  -13.1367  -10.0080   -1.8338 C   0  0  0  0  0  0  0  0  0  0  0  0
  -13.4452  -11.2082   -1.0239 N   0  0  0  0  0  0  0  0  0  0  0  0
  -14.3995  -12.1031   -1.4563 C   0  0  0  0  0  0  0  0  0  0  0  0
  -14.9818  -11.9632   -2.5223 O   0  0  0  0  0  0  0  0  0  0  0  0
  -14.6444  -13.1378   -0.6261 O   0  0  0  0  0  0  0  0  0  0  0  0
  -15.8149  -13.3649    0.1828 C   0  0  0  0  0  0  0  0  0  0  0  0
  -15.5733  -14.6582    0.9641 C   0  0  0  0  0  0  0  0  0  0  0  0
  -17.0530  -13.5566   -0.7010 C   0  0  0  0  0  0  0  0  0  0  0  0
  -16.0086  -12.2219    1.1863 C   0  0  0  0  0  0  0  0  0  0  0  0
  -12.5266  -11.5007    0.0912 C   0  0  0  0  0  0  0  0  0  0  0  0
  -11.1737  -11.8159   -0.5732 C   0  0  0  0  0  0  0  0  0  0  0  0
   -3.2745  -11.4269   -3.6679 N   0  0  0  0  0  0  0  0  0  0  0  0
   -2.9462  -12.4084   -4.6220 C   0  0  0  0  0  0  0  0  0  0  0  0
   -3.6799  -13.5942   -4.7111 C   0  0  0  0  0  0  0  0  0  0  0  0
   -3.3233  -14.5497   -5.6570 C   0  0  0  0  0  0  0  0  0  0  0  0
   -2.2340  -14.3226   -6.5031 C   0  0  0  0  0  0  0  0  0  0  0  0
   -1.7916  -15.5126   -7.6783 Cl  0  0  0  0  0  0  0  0  0  0  0  0
   -1.4991  -13.1377   -6.4021 C   0  0  0  0  0  0  0  0  0  0  0  0
   -1.8530  -12.1785   -5.4589 C   0  0  0  0  0  0  0  0  0  0  0  0
   -6.1168  -10.7046   -0.5674 H   0  0  0  0  0  0  0  0  0  0  0  0
   -7.5364  -10.0208   -4.4068 H   0  0  0  0  0  0  0  0  0  0  0  0
   -9.2353  -11.6307   -2.4374 H   0  0  0  0  0  0  0  0  0  0  0  0
  -10.7117   -9.7856   -0.7486 H   0  0  0  0  0  0  0  0  0  0  0  0
  -11.8190  -11.0089   -3.1640 H   0  0  0  0  0  0  0  0  0  0  0  0
  -13.8401   -9.8726   -2.5317 H   0  0  0  0  0  0  0  0  0  0  0  0
  -13.0888   -9.1992   -1.2476 H   0  0  0  0  0  0  0  0  0  0  0  0
  -16.3668  -14.8523    1.5409 H   0  0  0  0  0  0  0  0  0  0  0  0
  -15.4340  -15.4135    0.3237 H   0  0  0  0  0  0  0  0  0  0  0  0
  -14.7613  -14.5540    1.5383 H   0  0  0  0  0  0  0  0  0  0  0  0
  -17.8541  -13.7126   -0.1232 H   0  0  0  0  0  0  0  0  0  0  0  0
  -17.1967  -12.7370   -1.2556 H   0  0  0  0  0  0  0  0  0  0  0  0
  -16.9158  -14.3450   -1.3006 H   0  0  0  0  0  0  0  0  0  0  0  0
  -16.8243  -12.3970    1.7377 H   0  0  0  0  0  0  0  0  0  0  0  0
  -15.2087  -12.1637    1.7836 H   0  0  0  0  0  0  0  0  0  0  0  0
  -16.1191  -11.3596    0.6921 H   0  0  0  0  0  0  0  0  0  0  0  0
  -12.8515  -12.2874    0.6160 H   0  0  0  0  0  0  0  0  0  0  0  0
  -12.4445  -10.7079    0.6952 H   0  0  0  0  0  0  0  0  0  0  0  0
  -10.4911  -12.0258    0.1268 H   0  0  0  0  0  0  0  0  0  0  0  0
  -11.2706  -12.5976   -1.1893 H   0  0  0  0  0  0  0  0  0  0  0  0
   -2.5181  -10.9793   -3.1908 H   0  0  0  0  0  0  0  0  0  0  0  0
   -4.4550  -13.7546   -4.0999 H   0  0  0  0  0  0  0  0  0  0  0  0
   -3.8461  -15.3989   -5.7317 H   0  0  0  0  0  0  0  0  0  0  0  0
   -0.7191  -12.9798   -7.0077 H   0  0  0  0  0  0  0  0  0  0  0  0
   -1.3283  -11.3308   -5.3811 H   0  0  0  0  0  0  0  0  0  0  0  0
  1  2  1  0  0  0  0
  2  3  2  0  0  0  0
  2  7  1  0  0  0  0
  3  4  1  0  0  0  0
  3 25  1  0  0  0  0
  4  5  2  0  0  0  0
  5  6  1  0  0  0  0
  5 33  1  0  0  0  0
  6  7  2  0  0  0  0
  6  8  1  0  0  0  0
  7 34  1  0  0  0  0
  8  9  2  0  0  0  0
  8 10  1  0  0  0  0
 10 11  1  0  0  0  0
 10 35  1  0  0  0  0
 11 12  1  0  0  0  0
 11 24  1  0  0  0  0
 11 36  1  1  0  0  0
 12 13  1  0  0  0  0
 12 14  1  0  0  0  0
 12 37  1  6  0  0  0
 14 15  1  0  0  0  0
 14 38  1  0  0  0  0
 14 39  1  0  0  0  0
 15 16  1  0  0  0  0
 15 23  1  0  0  0  0
 16 17  2  0  0  0  0
 16 18  1  0  0  0  0
 18 19  1  0  0  0  0
 19 20  1  0  0  0  0
 19 21  1  0  0  0  0
 19 22  1  0  0  0  0
 20 40  1  0  0  0  0
 20 41  1  0  0  0  0
 20 42  1  0  0  0  0
 21 43  1  0  0  0  0
 21 44  1  0  0  0  0
 21 45  1  0  0  0  0
 22 46  1  0  0  0  0
 22 47  1  0  0  0  0
 22 48  1  0  0  0  0
 23 24  1  0  0  0  0
 23 49  1  0  0  0  0
 23 50  1  0  0  0  0
 24 51  1  0  0  0  0
 24 52  1  0  0  0  0
 25 26  1  0  0  0  0
 25 53  1  0  0  0  0
 26 27  2  0  0  0  0
 26 32  1  0  0  0  0
 27 28  1  0  0  0  0
 27 54  1  0  0  0  0
 28 29  2  0  0  0  0
 28 55  1  0  0  0  0
 29 30  1  0  0  0  0
 29 31  1  0  0  0  0
 31 32  2  0  0  0  0
 31 56  1  0  0  0  0
 32 57  1  0  0  0  0
M  END
>  <BIOSOLVEIT.HYDE_ESTIMATED_AFFINITY_LOWER_BOUNDARY [nM]>
31838730.867345

>  <BIOSOLVEIT.HYDE_ESTIMATED_AFFINITY_UPPER_BOUNDARY [nM]>
3163366157.145592

>  <BIOSOLVEIT.HYDE_LIGAND_EFFICIENCY range: ++, +, 0, -, -->
--

>  <BIOSOLVEIT.HYDE_LIGAND_LIPOPHILIC_EFFICIENCY range: ++, +, 0, -, -->
--

>  <BIOSOLVEIT.INTER_CLASH range: red, yellow, green>
green

>  <BIOSOLVEIT.INTRA_CLASH range: red, yellow, green>
green

>  <BIOSOLVEIT.LOGP>
5.2093

>  <BIOSOLVEIT.MOLECULAR WEIGHT>
483.369

>  <BIOSOLVEIT.MOLECULE_CHECKSUM>
LTIuODQ1MTQ7MC4wODg5MTA3

>  <BIOSOLVEIT.TORSION_QUALITY range: red, yellow, green, not rotatable>
red

>  <BIOSOLVEIT.TPSA>
83.56

$$$$
