Z410195728.****
 OpenBabel12172121453D
Hydescorer 1.1.2 b8048283
 37 38  0  0  0  0  0  0  0  0999 V2000
   -3.2962  -14.9996    3.8301 C   0  0  0  0  0  0  0  0  0  0  0  0
   -4.2736  -15.7452    3.1754 C   0  0  0  0  0  0  0  0  0  0  0  0
   -5.5576  -15.2312    2.9932 C   0  0  0  0  0  0  0  0  0  0  0  0
   -5.8458  -13.9470    3.4835 C   0  0  0  0  0  0  0  0  0  0  0  0
   -4.8731  -13.1948    4.1452 C   0  0  0  0  0  0  0  0  0  0  0  0
   -3.5987  -13.7259    4.3136 C   0  0  0  0  0  0  0  0  0  0  0  0
   -2.3779  -12.8091    5.1344 Cl  0  0  0  0  0  0  0  0  0  0  0  0
   -6.6022  -16.0644    2.2694 C   0  0  0  0  0  0  0  0  0  0  0  0
   -7.1596  -13.4423    3.3217 N   0  0  0  0  0  0  0  0  0  0  0  0
   -8.1885  -13.5582    4.2080 C   0  0  0  0  0  0  0  0  0  0  0  0
   -9.3276  -12.9691    3.7676 N   0  0  0  0  0  0  0  0  0  0  0  0
   -8.1066  -14.1234    5.2893 O   0  0  0  0  0  0  0  0  0  0  0  0
  -10.5581  -12.9745    4.5636 C   0  0  0  0  0  0  0  0  0  0  0  0
  -11.6235  -13.6810    3.7094 C   0  0  0  0  0  0  0  0  0  0  0  0
  -11.2337  -15.0847    3.2339 C   0  0  0  0  0  0  0  0  0  0  0  0
  -12.5595  -15.7740    2.8977 C   0  0  0  0  0  0  0  0  0  0  0  0
  -13.6505  -14.9630    3.6070 C   0  0  0  0  0  0  0  0  0  0  0  0
  -12.9041  -13.9674    4.4944 C   0  0  0  0  0  0  0  0  0  0  0  0
   -2.3783  -15.3768    3.9536 H   0  0  0  0  0  0  0  0  0  0  0  0
   -4.0527  -16.6581    2.8324 H   0  0  0  0  0  0  0  0  0  0  0  0
   -5.0906  -12.2834    4.4945 H   0  0  0  0  0  0  0  0  0  0  0  0
   -7.4615  -15.5550    2.2236 H   0  0  0  0  0  0  0  0  0  0  0  0
   -6.2843  -16.2660    1.3429 H   0  0  0  0  0  0  0  0  0  0  0  0
   -6.7481  -16.9204    2.7655 H   0  0  0  0  0  0  0  0  0  0  0  0
   -7.3514  -12.9516    2.4717 H   0  0  0  0  0  0  0  0  0  0  0  0
   -9.3280  -12.5184    2.8750 H   0  0  0  0  0  0  0  0  0  0  0  0
  -10.8429  -12.0378    4.7667 H   0  0  0  0  0  0  0  0  0  0  0  0
  -10.4147  -13.4722    5.4190 H   0  0  0  0  0  0  0  0  0  0  0  0
  -11.8420  -13.1121    2.9164 H   0  0  0  0  0  0  0  0  0  0  0  0
  -10.7541  -15.5802    3.9581 H   0  0  0  0  0  0  0  0  0  0  0  0
  -10.6502  -15.0315    2.4236 H   0  0  0  0  0  0  0  0  0  0  0  0
  -12.5553  -16.7167    3.2314 H   0  0  0  0  0  0  0  0  0  0  0  0
  -12.7117  -15.7709    1.9093 H   0  0  0  0  0  0  0  0  0  0  0  0
  -14.2269  -15.5626    4.1621 H   0  0  0  0  0  0  0  0  0  0  0  0
  -14.2172  -14.4802    2.9394 H   0  0  0  0  0  0  0  0  0  0  0  0
  -13.4390  -13.1322    4.6230 H   0  0  0  0  0  0  0  0  0  0  0  0
  -12.6948  -14.3697    5.3856 H   0  0  0  0  0  0  0  0  0  0  0  0
  1  2  2  0  0  0  0
  1  6  1  0  0  0  0
  1 19  1  0  0  0  0
  2  3  1  0  0  0  0
  2 20  1  0  0  0  0
  3  4  2  0  0  0  0
  3  8  1  0  0  0  0
  4  5  1  0  0  0  0
  4  9  1  0  0  0  0
  5  6  2  0  0  0  0
  5 21  1  0  0  0  0
  6  7  1  0  0  0  0
  8 22  1  0  0  0  0
  8 23  1  0  0  0  0
  8 24  1  0  0  0  0
  9 10  1  0  0  0  0
  9 25  1  0  0  0  0
 10 11  1  0  0  0  0
 10 12  2  0  0  0  0
 11 13  1  0  0  0  0
 11 26  1  0  0  0  0
 13 14  1  0  0  0  0
 13 27  1  0  0  0  0
 13 28  1  0  0  0  0
 14 15  1  0  0  0  0
 14 18  1  0  0  0  0
 14 29  1  0  0  0  0
 15 16  1  0  0  0  0
 15 30  1  0  0  0  0
 15 31  1  0  0  0  0
 16 17  1  0  0  0  0
 16 32  1  0  0  0  0
 16 33  1  0  0  0  0
 17 18  1  0  0  0  0
 17 34  1  0  0  0  0
 17 35  1  0  0  0  0
 18 36  1  0  0  0  0
 18 37  1  0  0  0  0
M  END
>  <BIOSOLVEIT.HYDE_ESTIMATED_AFFINITY_LOWER_BOUNDARY [nM]>
186465949.264908

>  <BIOSOLVEIT.HYDE_ESTIMATED_AFFINITY_UPPER_BOUNDARY [nM]>
18526494533.411747

>  <BIOSOLVEIT.HYDE_LIGAND_EFFICIENCY range: ++, +, 0, -, -->
--

>  <BIOSOLVEIT.HYDE_LIGAND_LIPOPHILIC_EFFICIENCY range: ++, +, 0, -, -->
--

>  <BIOSOLVEIT.INTER_CLASH range: red, yellow, green>
green

>  <BIOSOLVEIT.INTRA_CLASH range: red, yellow, green>
green

>  <BIOSOLVEIT.LOGP>
3.96012

>  <BIOSOLVEIT.MOLECULAR WEIGHT>
266.77

>  <BIOSOLVEIT.MOLECULE_CHECKSUM>
MS41MzY1ODsw

>  <BIOSOLVEIT.TORSION_QUALITY range: red, yellow, green, not rotatable>
yellow

>  <BIOSOLVEIT.TPSA>
41.13

$$$$
