Z1273128799.****
 OpenBabel12172121453D
Hydescorer 1.1.2 b8048283
 32 33  0  0  0  0  0  0  0  0999 V2000
   -4.0908  -11.4399   -3.7294 C   0  0  0  0  0  0  0  0  0  0  0  0
   -4.5170  -11.5910   -2.4114 C   0  0  0  0  0  0  0  0  0  0  0  0
   -5.7415  -11.0673   -1.9952 C   0  0  0  0  0  0  0  0  0  0  0  0
   -6.5314  -10.3937   -2.9391 C   0  0  0  0  0  0  0  0  0  0  0  0
   -6.1147  -10.2255   -4.2553 C   0  0  0  0  0  0  0  0  0  0  0  0
   -4.8889  -10.7551   -4.6489 C   0  0  0  0  0  0  0  0  0  0  0  0
   -4.3526  -10.5683   -6.2852 Cl  0  0  0  0  0  0  0  0  0  0  0  0
   -6.1876  -11.2333   -0.5525 C   0  0  0  0  0  0  0  0  0  0  0  0
   -7.7820   -9.8657   -2.5680 N   0  0  0  0  0  0  0  0  0  0  0  0
   -8.9902  -10.3048   -3.0098 C   0  0  0  0  0  0  0  0  0  0  0  0
  -10.2879   -9.6699   -2.5515 C   0  0  0  0  0  0  0  0  0  0  0  0
   -8.9582  -11.2348   -3.7810 O   0  0  0  0  0  0  0  0  0  0  0  0
  -11.3730  -10.0973   -3.5617 C   0  0  0  0  0  0  0  0  0  0  0  0
  -12.7219   -9.3384   -3.4046 C   0  0  0  0  0  0  0  0  0  0  0  0
  -13.4135  -10.7085   -3.6715 C   0  0  0  0  0  0  0  0  0  0  0  0
  -12.1191  -11.3925   -3.1377 C   0  0  0  0  0  0  0  0  0  0  0  0
   -3.2127  -11.8221   -4.0173 H   0  0  0  0  0  0  0  0  0  0  0  0
   -3.9396  -12.0797   -1.7574 H   0  0  0  0  0  0  0  0  0  0  0  0
   -6.6873   -9.7312   -4.9094 H   0  0  0  0  0  0  0  0  0  0  0  0
   -7.0810  -10.8016   -0.4281 H   0  0  0  0  0  0  0  0  0  0  0  0
   -6.2545  -12.2069   -0.3341 H   0  0  0  0  0  0  0  0  0  0  0  0
   -5.5210  -10.8006    0.0545 H   0  0  0  0  0  0  0  0  0  0  0  0
   -7.7818   -9.1012   -1.9234 H   0  0  0  0  0  0  0  0  0  0  0  0
  -10.1995   -8.6738   -2.5418 H   0  0  0  0  0  0  0  0  0  0  0  0
  -10.5243   -9.9925   -1.6349 H   0  0  0  0  0  0  0  0  0  0  0  0
  -11.0437  -10.1237   -4.5055 H   0  0  0  0  0  0  0  0  0  0  0  0
  -12.8939   -8.6383   -4.0976 H   0  0  0  0  0  0  0  0  0  0  0  0
  -12.8853   -8.9548   -2.4956 H   0  0  0  0  0  0  0  0  0  0  0  0
  -13.6157  -10.8927   -4.6334 H   0  0  0  0  0  0  0  0  0  0  0  0
  -14.2310  -10.8767   -3.1208 H   0  0  0  0  0  0  0  0  0  0  0  0
  -12.1158  -11.5771   -2.1549 H   0  0  0  0  0  0  0  0  0  0  0  0
  -11.8446  -12.2170   -3.6327 H   0  0  0  0  0  0  0  0  0  0  0  0
  1  2  2  0  0  0  0
  1  6  1  0  0  0  0
  1 17  1  0  0  0  0
  2  3  1  0  0  0  0
  2 18  1  0  0  0  0
  3  4  2  0  0  0  0
  3  8  1  0  0  0  0
  4  5  1  0  0  0  0
  4  9  1  0  0  0  0
  5  6  2  0  0  0  0
  5 19  1  0  0  0  0
  6  7  1  0  0  0  0
  8 20  1  0  0  0  0
  8 21  1  0  0  0  0
  8 22  1  0  0  0  0
  9 10  1  0  0  0  0
  9 23  1  0  0  0  0
 10 11  1  0  0  0  0
 10 12  2  0  0  0  0
 11 13  1  0  0  0  0
 11 24  1  0  0  0  0
 11 25  1  0  0  0  0
 13 14  1  0  0  0  0
 13 16  1  0  0  0  0
 13 26  1  0  0  0  0
 14 15  1  0  0  0  0
 14 27  1  0  0  0  0
 14 28  1  0  0  0  0
 15 16  1  0  0  0  0
 15 29  1  0  0  0  0
 15 30  1  0  0  0  0
 16 31  1  0  0  0  0
 16 32  1  0  0  0  0
M  END
>  <BIOSOLVEIT.HYDE_ESTIMATED_AFFINITY_LOWER_BOUNDARY [nM]>
15046945.129388

>  <BIOSOLVEIT.HYDE_ESTIMATED_AFFINITY_UPPER_BOUNDARY [nM]>
1495002963.185111

>  <BIOSOLVEIT.HYDE_LIGAND_EFFICIENCY range: ++, +, 0, -, -->
--

>  <BIOSOLVEIT.HYDE_LIGAND_LIPOPHILIC_EFFICIENCY range: ++, +, 0, -, -->
--

>  <BIOSOLVEIT.INTER_CLASH range: red, yellow, green>
green

>  <BIOSOLVEIT.INTRA_CLASH range: red, yellow, green>
green

>  <BIOSOLVEIT.LOGP>
3.77712

>  <BIOSOLVEIT.MOLECULAR WEIGHT>
237.728

>  <BIOSOLVEIT.MOLECULE_CHECKSUM>
LTQuNzAzMTQ7MC4yOTM5NDY=

>  <BIOSOLVEIT.TORSION_QUALITY range: red, yellow, green, not rotatable>
green

>  <BIOSOLVEIT.TPSA>
29.1

$$$$
