Z854669466.****
 OpenBabel12172121453D
Hydescorer 1.1.2 b8048283
 39 41  0  0  0  0  0  0  0  0999 V2000
   -9.6974  -15.0247    4.7683 C   0  0  0  0  0  0  0  0  0  0  0  0
   -9.4388  -14.7735    3.4229 C   0  0  0  0  0  0  0  0  0  0  0  0
   -8.1435  -14.8746    2.9164 C   0  0  0  0  0  0  0  0  0  0  0  0
   -7.1052  -15.2363    3.7906 C   0  0  0  0  0  0  0  0  0  0  0  0
   -7.3543  -15.4852    5.1412 C   0  0  0  0  0  0  0  0  0  0  0  0
   -8.6550  -15.3807    5.6249 C   0  0  0  0  0  0  0  0  0  0  0  0
   -8.9845  -15.6824    7.2988 Cl  0  0  0  0  0  0  0  0  0  0  0  0
   -7.8909  -14.5994    1.4439 C   0  0  0  0  0  0  0  0  0  0  0  0
   -5.7858  -15.3035    3.2750 N   0  0  0  0  0  0  0  0  0  0  0  0
   -4.8471  -14.3033    3.2616 C   0  0  0  0  0  0  0  0  0  0  0  0
   -3.5070  -14.6351    2.6488 C   0  0  0  0  0  0  0  0  0  0  0  0
   -5.0856  -13.2172    3.7405 O   0  0  0  0  0  0  0  0  0  0  0  0
   -2.4470  -14.6058    3.7756 C   0  0  0  0  0  0  0  0  0  0  0  0
   -2.1409  -13.1342    4.1398 C   0  0  0  0  0  0  0  0  0  0  0  0
   -3.1109  -15.2433    5.0157 C   0  0  0  0  0  0  0  0  0  0  0  0
   -3.2596  -16.7372    4.9907 C   0  0  0  0  0  0  0  0  0  0  0  0
   -2.2270  -16.0901    5.8843 C   0  0  0  0  0  0  0  0  0  0  0  0
   -1.1513  -12.9160    5.2484 C   0  0  0  0  0  0  0  0  0  0  0  0
   -0.7599  -12.6401    3.8152 C   0  0  0  0  0  0  0  0  0  0  0  0
  -10.6304  -14.9499    5.1204 H   0  0  0  0  0  0  0  0  0  0  0  0
  -10.1896  -14.5180    2.8139 H   0  0  0  0  0  0  0  0  0  0  0  0
   -6.6058  -15.7362    5.7550 H   0  0  0  0  0  0  0  0  0  0  0  0
   -6.9175  -14.7145    1.2455 H   0  0  0  0  0  0  0  0  0  0  0  0
   -8.4221  -15.2398    0.8892 H   0  0  0  0  0  0  0  0  0  0  0  0
   -8.1667  -13.6628    1.2277 H   0  0  0  0  0  0  0  0  0  0  0  0
   -5.5088  -16.1779    2.8767 H   0  0  0  0  0  0  0  0  0  0  0  0
   -3.2771  -13.9591    1.9486 H   0  0  0  0  0  0  0  0  0  0  0  0
   -3.5384  -15.5452    2.2358 H   0  0  0  0  0  0  0  0  0  0  0  0
   -1.6176  -15.0976    3.5109 H   0  0  0  0  0  0  0  0  0  0  0  0
   -2.8914  -12.4781    4.0611 H   0  0  0  0  0  0  0  0  0  0  0  0
   -3.8317  -14.7192    5.4693 H   0  0  0  0  0  0  0  0  0  0  0  0
   -2.9708  -17.2557    4.1858 H   0  0  0  0  0  0  0  0  0  0  0  0
   -4.0693  -17.1665    5.3907 H   0  0  0  0  0  0  0  0  0  0  0  0
   -2.3527  -16.0908    6.8764 H   0  0  0  0  0  0  0  0  0  0  0  0
   -1.2540  -16.1801    5.6715 H   0  0  0  0  0  0  0  0  0  0  0  0
   -0.7608  -13.6993    5.7320 H   0  0  0  0  0  0  0  0  0  0  0  0
   -1.2756  -12.1575    5.8882 H   0  0  0  0  0  0  0  0  0  0  0  0
   -0.6249  -11.6990    3.5054 H   0  0  0  0  0  0  0  0  0  0  0  0
   -0.1101  -13.2407    3.3493 H   0  0  0  0  0  0  0  0  0  0  0  0
  1  2  2  0  0  0  0
  1  6  1  0  0  0  0
  1 20  1  0  0  0  0
  2  3  1  0  0  0  0
  2 21  1  0  0  0  0
  3  4  2  0  0  0  0
  3  8  1  0  0  0  0
  4  5  1  0  0  0  0
  4  9  1  0  0  0  0
  5  6  2  0  0  0  0
  5 22  1  0  0  0  0
  6  7  1  0  0  0  0
  8 23  1  0  0  0  0
  8 24  1  0  0  0  0
  8 25  1  0  0  0  0
  9 10  1  0  0  0  0
  9 26  1  0  0  0  0
 10 11  1  0  0  0  0
 10 12  2  0  0  0  0
 11 13  1  0  0  0  0
 11 27  1  0  0  0  0
 11 28  1  0  0  0  0
 13 14  1  0  0  0  0
 13 15  1  0  0  0  0
 13 29  1  0  0  0  0
 14 18  1  0  0  0  0
 14 19  1  0  0  0  0
 14 30  1  0  0  0  0
 15 16  1  0  0  0  0
 15 17  1  0  0  0  0
 15 31  1  0  0  0  0
 16 17  1  0  0  0  0
 16 32  1  0  0  0  0
 16 33  1  0  0  0  0
 17 34  1  0  0  0  0
 17 35  1  0  0  0  0
 18 19  1  0  0  0  0
 18 36  1  0  0  0  0
 18 37  1  0  0  0  0
 19 38  1  0  0  0  0
 19 39  1  0  0  0  0
M  END
>  <BIOSOLVEIT.HYDE_ESTIMATED_AFFINITY_LOWER_BOUNDARY [nM]>
2280598236.735534

>  <BIOSOLVEIT.HYDE_ESTIMATED_AFFINITY_UPPER_BOUNDARY [nM]>
226590918783.587646

>  <BIOSOLVEIT.HYDE_LIGAND_EFFICIENCY range: ++, +, 0, -, -->
--

>  <BIOSOLVEIT.HYDE_LIGAND_LIPOPHILIC_EFFICIENCY range: ++, +, 0, -, -->
--

>  <BIOSOLVEIT.INTER_CLASH range: red, yellow, green>
green

>  <BIOSOLVEIT.INTRA_CLASH range: red, yellow, green>
green

>  <BIOSOLVEIT.LOGP>
4.41322

>  <BIOSOLVEIT.MOLECULAR WEIGHT>
277.793

>  <BIOSOLVEIT.MOLECULE_CHECKSUM>
Ny43NDM3NTsw

>  <BIOSOLVEIT.TORSION_QUALITY range: red, yellow, green, not rotatable>
yellow

>  <BIOSOLVEIT.TPSA>
29.1

$$$$
