G7.sdf
 OpenBabel12172121453D
Hydescorer 1.1.2 b8048283
 61 64  0  0  0  0  0  0  0  0999 V2000
   -2.3355  -15.4424   -6.7212 C   0  0  0  0  0  0  0  0  0  0  0  0
   -1.4387  -14.4527   -6.7792 N   0  0  0  0  0  0  0  0  0  0  0  0
   -1.6031  -13.3623   -6.0267 C   0  0  0  0  0  0  0  0  0  0  0  0
   -2.7059  -13.2390   -5.1549 C   0  0  0  0  0  0  0  0  0  0  0  0
   -3.6543  -14.2553   -5.0884 C   0  0  0  0  0  0  0  0  0  0  0  0
   -3.4565  -15.3731   -5.8859 C   0  0  0  0  0  0  0  0  0  0  0  0
   -4.5941  -16.6800   -5.8466 Cl  0  0  0  0  0  0  0  0  0  0  0  0
   -2.8726  -12.0898   -4.3562 N   0  0  0  0  0  0  0  0  0  0  0  0
   -3.7977  -11.0707   -4.8466 C   0  0  0  0  0  0  0  0  0  0  0  0
   -4.8080  -10.9465   -3.7285 C   0  0  0  0  0  0  0  0  0  0  0  0
   -4.6317  -11.2436   -2.4031 C   0  0  0  0  0  0  0  0  0  0  0  0
   -5.7714  -10.9960   -1.6269 C   0  0  0  0  0  0  0  0  0  0  0  0
   -6.8328  -10.4999   -2.3577 C   0  0  0  0  0  0  0  0  0  0  0  0
   -6.3940  -10.3387   -4.0300 S   0  0  0  0  0  0  0  0  0  0  0  0
   -8.1622  -10.1306   -1.8976 C   0  0  0  0  0  0  0  0  0  0  0  0
   -9.1939  -11.0012   -2.1311 N   0  0  0  0  0  0  0  0  0  0  0  0
  -10.6400  -10.8538   -1.7603 C   0  0  2  0  0  0  0  0  0  0  0  0
  -11.0376  -11.7162   -0.5462 C   0  0  0  0  0  0  0  0  0  0  0  0
  -11.9638  -11.3968    0.1942 O   0  0  0  0  0  0  0  0  0  0  0  0
  -10.3577  -12.8579   -0.2714 N   0  0  0  0  0  0  0  0  0  0  0  0
  -10.6814  -13.7292    0.8691 C   0  0  0  0  0  0  0  0  0  0  0  0
   -8.4146   -9.0817   -1.3160 O   0  0  0  0  0  0  0  0  0  0  0  0
   -0.5549  -12.2784   -6.1436 C   0  0  0  0  0  0  0  0  0  0  0  0
  -10.9730  -15.2002    0.4261 C   0  0  0  0  0  0  0  0  0  0  0  0
   -9.4026  -14.2586    1.5968 C   0  0  0  0  0  0  0  0  0  0  0  0
   -9.6369  -15.5135    0.9011 O   0  0  0  0  0  0  0  0  0  0  0  0
   -2.2020  -16.2541   -7.2898 H   0  0  0  0  0  0  0  0  0  0  0  0
   -4.4501  -14.1825   -4.4872 H   0  0  0  0  0  0  0  0  0  0  0  0
   -2.3802  -11.9770   -3.4932 H   0  0  0  0  0  0  0  0  0  0  0  0
   -4.2375  -11.3653   -5.6950 H   0  0  0  0  0  0  0  0  0  0  0  0
   -3.3253  -10.2028   -5.0000 H   0  0  0  0  0  0  0  0  0  0  0  0
   -3.7764  -11.6009   -2.0277 H   0  0  0  0  0  0  0  0  0  0  0  0
   -5.8122  -11.1621   -0.6415 H   0  0  0  0  0  0  0  0  0  0  0  0
   -8.9515  -11.8444   -2.6109 H   0  0  0  0  0  0  0  0  0  0  0  0
  -11.5690  -11.1912   -2.9582 C   0  0  0  0  0  0  0  0  0  0  0  0
   -9.6019  -13.1192   -0.8717 H   0  0  0  0  0  0  0  0  0  0  0  0
  -11.3698  -13.3485    1.4864 H   0  0  0  0  0  0  0  0  0  0  0  0
   -0.7896  -11.5207   -5.5348 H   0  0  0  0  0  0  0  0  0  0  0  0
    0.3377  -12.6486   -5.8861 H   0  0  0  0  0  0  0  0  0  0  0  0
   -0.5197  -11.9492   -7.0872 H   0  0  0  0  0  0  0  0  0  0  0  0
  -11.1098  -15.3242   -0.5567 H   0  0  0  0  0  0  0  0  0  0  0  0
  -11.7132  -15.6508    0.9251 H   0  0  0  0  0  0  0  0  0  0  0  0
   -9.4760  -14.3096    2.5927 H   0  0  0  0  0  0  0  0  0  0  0  0
   -8.5537  -13.7920    1.3485 H   0  0  0  0  0  0  0  0  0  0  0  0
  -12.9862  -10.6071   -2.7309 C   0  0  0  0  0  0  0  0  0  0  0  0
  -11.6344  -12.1845   -3.0538 H   0  0  0  0  0  0  0  0  0  0  0  0
  -11.1827  -10.8007   -3.7938 H   0  0  0  0  0  0  0  0  0  0  0  0
  -12.9139   -9.0948   -2.4968 C   0  0  0  0  0  0  0  0  0  0  0  0
  -13.9089  -10.6528   -3.9566 C   0  0  0  0  0  0  0  0  0  0  0  0
  -13.4656   -9.4855   -4.8421 C   0  0  0  0  0  0  0  0  0  0  0  0
  -12.8308   -8.4659   -3.8914 C   0  0  0  0  0  0  0  0  0  0  0  0
  -13.4241  -11.0565   -1.9522 H   0  0  0  0  0  0  0  0  0  0  0  0
  -12.1024   -8.8631   -1.9603 H   0  0  0  0  0  0  0  0  0  0  0  0
  -13.7321   -8.7761   -2.0183 H   0  0  0  0  0  0  0  0  0  0  0  0
  -14.8633  -10.5398   -3.6806 H   0  0  0  0  0  0  0  0  0  0  0  0
  -13.8029  -11.5205   -4.4423 H   0  0  0  0  0  0  0  0  0  0  0  0
  -14.2527   -9.0837   -5.3100 H   0  0  0  0  0  0  0  0  0  0  0  0
  -12.7976   -9.7948   -5.5190 H   0  0  0  0  0  0  0  0  0  0  0  0
  -11.8773   -8.3004   -4.1433 H   0  0  0  0  0  0  0  0  0  0  0  0
  -13.3366   -7.6037   -3.9161 H   0  0  0  0  0  0  0  0  0  0  0  0
  -10.7948   -9.8965   -1.5164 H   0  0  0  0  0  0  0  0  0  0  0  0
  1  2  2  0  0  0  0
  1  6  1  0  0  0  0
  1 27  1  0  0  0  0
  2  3  1  0  0  0  0
  3  4  2  0  0  0  0
  3 23  1  0  0  0  0
  4  5  1  0  0  0  0
  4  8  1  0  0  0  0
  5  6  2  0  0  0  0
  5 28  1  0  0  0  0
  6  7  1  0  0  0  0
  8  9  1  0  0  0  0
  8 29  1  0  0  0  0
  9 10  1  0  0  0  0
  9 30  1  0  0  0  0
  9 31  1  0  0  0  0
 10 11  2  0  0  0  0
 10 14  1  0  0  0  0
 11 12  1  0  0  0  0
 11 32  1  0  0  0  0
 12 13  2  0  0  0  0
 12 33  1  0  0  0  0
 13 14  1  0  0  0  0
 13 15  1  0  0  0  0
 15 16  1  0  0  0  0
 15 22  2  0  0  0  0
 16 17  1  0  0  0  0
 16 34  1  0  0  0  0
 17 18  1  0  0  0  0
 17 35  1  0  0  0  0
 17 61  1  1  0  0  0
 18 19  2  0  0  0  0
 18 20  1  0  0  0  0
 20 21  1  0  0  0  0
 20 36  1  0  0  0  0
 21 24  1  0  0  0  0
 21 25  1  0  0  0  0
 21 37  1  0  0  0  0
 23 38  1  0  0  0  0
 23 39  1  0  0  0  0
 23 40  1  0  0  0  0
 24 26  1  0  0  0  0
 24 41  1  0  0  0  0
 24 42  1  0  0  0  0
 25 26  1  0  0  0  0
 25 43  1  0  0  0  0
 25 44  1  0  0  0  0
 35 45  1  0  0  0  0
 35 46  1  0  0  0  0
 35 47  1  0  0  0  0
 45 48  1  0  0  0  0
 45 49  1  0  0  0  0
 45 52  1  0  0  0  0
 48 51  1  0  0  0  0
 48 53  1  0  0  0  0
 48 54  1  0  0  0  0
 49 50  1  0  0  0  0
 49 55  1  0  0  0  0
 49 56  1  0  0  0  0
 50 51  1  0  0  0  0
 50 57  1  0  0  0  0
 50 58  1  0  0  0  0
 51 59  1  0  0  0  0
 51 60  1  0  0  0  0
M  END
>  <BIOSOLVEIT.HYDE_ESTIMATED_AFFINITY_LOWER_BOUNDARY [nM]>
19551491374.718616

>  <BIOSOLVEIT.HYDE_ESTIMATED_AFFINITY_UPPER_BOUNDARY [nM]>
1942556265643.828857

>  <BIOSOLVEIT.HYDE_LIGAND_EFFICIENCY range: ++, +, 0, -, -->
--

>  <BIOSOLVEIT.HYDE_LIGAND_LIPOPHILIC_EFFICIENCY range: ++, +, 0, -, -->
--

>  <BIOSOLVEIT.INTER_CLASH range: red, yellow, green>
green

>  <BIOSOLVEIT.INTRA_CLASH range: red, yellow, green>
green

>  <BIOSOLVEIT.LOGP>
3.91072

>  <BIOSOLVEIT.MOLECULAR WEIGHT>
477.025

>  <BIOSOLVEIT.MOLECULE_CHECKSUM>
MTMuMDcwMTsw

>  <BIOSOLVEIT.TORSION_QUALITY range: red, yellow, green, not rotatable>
red

>  <BIOSOLVEIT.TPSA>
92.35

$$$$
