Z28053011.****
 OpenBabel12172121453D
Hydescorer 1.1.2 b8048283
 44 47  0  0  0  0  0  0  0  0999 V2000
  -10.3248  -13.4182    4.4672 C   0  0  0  0  0  0  0  0  0  0  0  0
  -10.6143  -14.3487    3.4727 C   0  0  0  0  0  0  0  0  0  0  0  0
  -11.7233  -14.1671    2.6539 C   0  0  0  0  0  0  0  0  0  0  0  0
  -12.5639  -13.0579    2.8122 C   0  0  0  0  0  0  0  0  0  0  0  0
  -12.2453  -12.1202    3.8074 C   0  0  0  0  0  0  0  0  0  0  0  0
  -11.1402  -12.3012    4.6323 C   0  0  0  0  0  0  0  0  0  0  0  0
   -8.9513  -13.6512    5.4967 Cl  0  0  0  0  0  0  0  0  0  0  0  0
  -13.7975  -12.9360    1.8839 C   0  0  0  0  0  0  0  0  0  0  0  0
  -13.3564  -12.4222    0.4844 C   0  0  0  0  0  0  0  0  0  0  0  0
  -14.8015  -11.9614    2.5376 C   0  0  0  0  0  0  0  0  0  0  0  0
  -15.4707  -12.8311    3.6034 C   0  0  0  0  0  0  0  0  0  0  0  0
  -15.5825  -14.2194    2.9652 C   0  0  0  0  0  0  0  0  0  0  0  0
  -14.6404  -14.2317    1.7482 C   0  0  0  0  0  0  0  0  0  0  0  0
  -13.0388  -11.1177    0.2180 N   0  0  0  0  0  0  0  0  0  0  0  0
  -13.2596  -13.1505   -0.4818 O   0  0  0  0  0  0  0  0  0  0  0  0
  -12.6346  -10.5870   -1.0167 C   0  0  0  0  0  0  0  0  0  0  0  0
  -11.3025  -10.6852   -1.4032 C   0  0  0  0  0  0  0  0  0  0  0  0
  -10.9495  -10.2302   -2.6729 C   0  0  0  0  0  0  0  0  0  0  0  0
  -11.8879   -9.6364   -3.5241 C   0  0  0  0  0  0  0  0  0  0  0  0
  -13.2083   -9.5079   -3.0948 C   0  0  0  0  0  0  0  0  0  0  0  0
  -13.5875   -9.9829   -1.8400 C   0  0  0  0  0  0  0  0  0  0  0  0
   -9.5929  -10.4031   -3.1269 N   0  0  0  0  0  0  0  0  0  0  0  0
   -9.2663  -10.9331   -4.2947 N   0  0  0  0  0  0  0  0  0  0  0  0
   -7.9653  -10.9313   -4.3232 N   0  0  0  0  0  0  0  0  0  0  0  0
   -7.4660  -10.3993   -3.1737 N   0  0  0  0  0  0  0  0  0  0  0  0
   -8.4870  -10.0887   -2.4673 C   0  0  0  0  0  0  0  0  0  0  0  0
  -10.0252  -15.1469    3.3475 H   0  0  0  0  0  0  0  0  0  0  0  0
  -11.9239  -14.8389    1.9408 H   0  0  0  0  0  0  0  0  0  0  0  0
  -12.8210  -11.3110    3.9248 H   0  0  0  0  0  0  0  0  0  0  0  0
  -10.9313  -11.6298    5.3434 H   0  0  0  0  0  0  0  0  0  0  0  0
  -15.4693  -11.6308    1.8706 H   0  0  0  0  0  0  0  0  0  0  0  0
  -14.3304  -11.1825    2.9516 H   0  0  0  0  0  0  0  0  0  0  0  0
  -16.3768  -12.4743    3.8308 H   0  0  0  0  0  0  0  0  0  0  0  0
  -14.9098  -12.8680    4.4305 H   0  0  0  0  0  0  0  0  0  0  0  0
  -16.5238  -14.3882    2.6726 H   0  0  0  0  0  0  0  0  0  0  0  0
  -15.3060  -14.9222    3.6207 H   0  0  0  0  0  0  0  0  0  0  0  0
  -14.0506  -15.0390    1.7679 H   0  0  0  0  0  0  0  0  0  0  0  0
  -15.1650  -14.2228    0.8969 H   0  0  0  0  0  0  0  0  0  0  0  0
  -13.1013  -10.4761    0.9826 H   0  0  0  0  0  0  0  0  0  0  0  0
  -10.6162  -11.0718   -0.7871 H   0  0  0  0  0  0  0  0  0  0  0  0
  -11.6152   -9.3086   -4.4286 H   0  0  0  0  0  0  0  0  0  0  0  0
  -13.8855   -9.0737   -3.6888 H   0  0  0  0  0  0  0  0  0  0  0  0
  -14.5344   -9.8917   -1.5318 H   0  0  0  0  0  0  0  0  0  0  0  0
   -8.4554   -9.6730   -1.5584 H   0  0  0  0  0  0  0  0  0  0  0  0
  1  2  2  0  0  0  0
  1  6  1  0  0  0  0
  1  7  1  0  0  0  0
  2  3  1  0  0  0  0
  2 27  1  0  0  0  0
  3  4  2  0  0  0  0
  3 28  1  0  0  0  0
  4  5  1  0  0  0  0
  4  8  1  0  0  0  0
  5  6  2  0  0  0  0
  5 29  1  0  0  0  0
  6 30  1  0  0  0  0
  8  9  1  0  0  0  0
  8 10  1  0  0  0  0
  8 13  1  0  0  0  0
  9 14  1  0  0  0  0
  9 15  2  0  0  0  0
 10 11  1  0  0  0  0
 10 31  1  0  0  0  0
 10 32  1  0  0  0  0
 11 12  1  0  0  0  0
 11 33  1  0  0  0  0
 11 34  1  0  0  0  0
 12 13  1  0  0  0  0
 12 35  1  0  0  0  0
 12 36  1  0  0  0  0
 13 37  1  0  0  0  0
 13 38  1  0  0  0  0
 14 16  1  0  0  0  0
 14 39  1  0  0  0  0
 16 17  2  0  0  0  0
 16 21  1  0  0  0  0
 17 18  1  0  0  0  0
 17 40  1  0  0  0  0
 18 19  2  0  0  0  0
 18 22  1  0  0  0  0
 19 20  1  0  0  0  0
 19 41  1  0  0  0  0
 20 21  2  0  0  0  0
 20 42  1  0  0  0  0
 21 43  1  0  0  0  0
 22 23  1  0  0  0  0
 22 26  1  0  0  0  0
 23 24  2  0  0  0  0
 24 25  1  0  0  0  0
 25 26  2  0  0  0  0
 26 44  1  0  0  0  0
M  END
>  <BIOSOLVEIT.HYDE_ESTIMATED_AFFINITY_LOWER_BOUNDARY [nM]>
2646458765.728995

>  <BIOSOLVEIT.HYDE_ESTIMATED_AFFINITY_UPPER_BOUNDARY [nM]>
262941325477.728699

>  <BIOSOLVEIT.HYDE_LIGAND_EFFICIENCY range: ++, +, 0, -, -->
--

>  <BIOSOLVEIT.HYDE_LIGAND_LIPOPHILIC_EFFICIENCY range: ++, +, 0, -, -->
--

>  <BIOSOLVEIT.INTER_CLASH range: red, yellow, green>
green

>  <BIOSOLVEIT.INTRA_CLASH range: red, yellow, green>
green

>  <BIOSOLVEIT.LOGP>
3.7662

>  <BIOSOLVEIT.MOLECULAR WEIGHT>
367.838

>  <BIOSOLVEIT.MOLECULE_CHECKSUM>
OC4xMTI1ODsw

>  <BIOSOLVEIT.TORSION_QUALITY range: red, yellow, green, not rotatable>
red

>  <BIOSOLVEIT.TPSA>
72.7

$$$$
