Z297324774.****
 OpenBabel12172121453D
Hydescorer 1.1.2 b8048283
 36 37  0  0  0  0  0  0  0  0999 V2000
   -0.4912  -13.1646   -5.5508 C   0  0  0  0  0  0  0  0  0  0  0  0
   -0.2853  -14.0319   -6.6156 C   0  0  0  0  0  0  0  0  0  0  0  0
   -1.2582  -14.2701   -7.5763 C   0  0  0  0  0  0  0  0  0  0  0  0
   -2.4792  -13.6107   -7.4667 C   0  0  0  0  0  0  0  0  0  0  0  0
   -2.7049  -12.7316   -6.4063 C   0  0  0  0  0  0  0  0  0  0  0  0
   -1.7160  -12.5035   -5.4427 C   0  0  0  0  0  0  0  0  0  0  0  0
    0.9048  -14.6669   -6.7221 F   0  0  0  0  0  0  0  0  0  0  0  0
   -1.9715  -11.5502   -4.2842 C   0  0  0  0  0  0  0  0  0  0  0  0
   -3.2973  -11.9241   -3.6516 C   0  0  0  0  0  0  0  0  0  0  0  0
   -3.9734  -10.9409   -2.9749 N   0  0  0  0  0  0  0  0  0  0  0  0
   -3.7282  -13.0560   -3.6989 O   0  0  0  0  0  0  0  0  0  0  0  0
   -5.2243  -11.0429   -2.3024 C   0  0  0  0  0  0  0  0  0  0  0  0
   -6.3487  -10.4540   -2.8956 C   0  0  0  0  0  0  0  0  0  0  0  0
   -7.6030  -10.5037   -2.2977 C   0  0  0  0  0  0  0  0  0  0  0  0
   -7.7462  -11.1685   -1.0812 C   0  0  0  0  0  0  0  0  0  0  0  0
   -6.6312  -11.7798   -0.4949 C   0  0  0  0  0  0  0  0  0  0  0  0
   -5.3673  -11.7263   -1.0927 C   0  0  0  0  0  0  0  0  0  0  0  0
   -6.2251   -9.8155   -4.0808 F   0  0  0  0  0  0  0  0  0  0  0  0
   -6.8204  -12.4362    0.7423 N   0  0  0  0  0  0  0  0  0  0  0  0
   -7.5401  -13.5815    0.9393 C   0  0  0  0  0  0  0  0  0  0  0  0
   -7.6024  -14.0984    2.3495 C   0  0  0  0  0  0  0  0  0  0  0  0
   -8.1150  -14.1243    0.0233 O   0  0  0  0  0  0  0  0  0  0  0  0
    0.2274  -13.0157   -4.8715 H   0  0  0  0  0  0  0  0  0  0  0  0
   -1.0856  -14.9024   -8.3316 H   0  0  0  0  0  0  0  0  0  0  0  0
   -3.1946  -13.7668   -8.1478 H   0  0  0  0  0  0  0  0  0  0  0  0
   -3.5835  -12.2594   -6.3343 H   0  0  0  0  0  0  0  0  0  0  0  0
   -2.0099  -10.6096   -4.6213 H   0  0  0  0  0  0  0  0  0  0  0  0
   -1.2384  -11.6328   -3.6091 H   0  0  0  0  0  0  0  0  0  0  0  0
   -3.5342  -10.0428   -2.9510 H   0  0  0  0  0  0  0  0  0  0  0  0
   -8.3907  -10.0689   -2.7341 H   0  0  0  0  0  0  0  0  0  0  0  0
   -8.6381  -11.2086   -0.6307 H   0  0  0  0  0  0  0  0  0  0  0  0
   -4.5811  -12.1692   -0.6619 H   0  0  0  0  0  0  0  0  0  0  0  0
   -6.3890  -12.0259    1.5458 H   0  0  0  0  0  0  0  0  0  0  0  0
   -8.1511  -14.9340    2.3743 H   0  0  0  0  0  0  0  0  0  0  0  0
   -6.6773  -14.2974    2.6727 H   0  0  0  0  0  0  0  0  0  0  0  0
   -8.0203  -13.4076    2.9396 H   0  0  0  0  0  0  0  0  0  0  0  0
  1  2  2  0  0  0  0
  1  6  1  0  0  0  0
  1 23  1  0  0  0  0
  2  3  1  0  0  0  0
  2  7  1  0  0  0  0
  3  4  2  0  0  0  0
  3 24  1  0  0  0  0
  4  5  1  0  0  0  0
  4 25  1  0  0  0  0
  5  6  2  0  0  0  0
  5 26  1  0  0  0  0
  6  8  1  0  0  0  0
  8  9  1  0  0  0  0
  8 27  1  0  0  0  0
  8 28  1  0  0  0  0
  9 10  1  0  0  0  0
  9 11  2  0  0  0  0
 10 12  1  0  0  0  0
 10 29  1  0  0  0  0
 12 13  2  0  0  0  0
 12 17  1  0  0  0  0
 13 14  1  0  0  0  0
 13 18  1  0  0  0  0
 14 15  2  0  0  0  0
 14 30  1  0  0  0  0
 15 16  1  0  0  0  0
 15 31  1  0  0  0  0
 16 17  2  0  0  0  0
 16 19  1  0  0  0  0
 17 32  1  0  0  0  0
 19 20  1  0  0  0  0
 19 33  1  0  0  0  0
 20 21  1  0  0  0  0
 20 22  2  0  0  0  0
 21 34  1  0  0  0  0
 21 35  1  0  0  0  0
 21 36  1  0  0  0  0
M  END
>  <BIOSOLVEIT.HYDE_ESTIMATED_AFFINITY_LOWER_BOUNDARY [nM]>
230155840.749344

>  <BIOSOLVEIT.HYDE_ESTIMATED_AFFINITY_UPPER_BOUNDARY [nM]>
22867343567.472244

>  <BIOSOLVEIT.HYDE_LIGAND_EFFICIENCY range: ++, +, 0, -, -->
--

>  <BIOSOLVEIT.HYDE_LIGAND_LIPOPHILIC_EFFICIENCY range: ++, +, 0, -, -->
--

>  <BIOSOLVEIT.INTER_CLASH range: red, yellow, green>
green

>  <BIOSOLVEIT.INTRA_CLASH range: red, yellow, green>
green

>  <BIOSOLVEIT.LOGP>
3.1044

>  <BIOSOLVEIT.MOLECULAR WEIGHT>
304.295

>  <BIOSOLVEIT.MOLECULE_CHECKSUM>
Mi4wNTg0Mjsw

>  <BIOSOLVEIT.TORSION_QUALITY range: red, yellow, green, not rotatable>
yellow

>  <BIOSOLVEIT.TPSA>
58.2

$$$$
