Z28051555.****
 OpenBabel12172121453D
Hydescorer 1.1.2 b8048283
 34 36  0  0  0  0  0  0  0  0999 V2000
   -1.1784  -13.3966   -6.8040 C   0  0  0  0  0  0  0  0  0  0  0  0
   -2.5081  -13.1053   -7.1141 C   0  0  0  0  0  0  0  0  0  0  0  0
   -3.2880  -14.0699   -7.7597 C   0  0  0  0  0  0  0  0  0  0  0  0
   -2.7547  -15.3171   -8.0890 C   0  0  0  0  0  0  0  0  0  0  0  0
   -1.4302  -15.6116   -7.7768 C   0  0  0  0  0  0  0  0  0  0  0  0
   -0.6679  -14.6434   -7.1409 C   0  0  0  0  0  0  0  0  0  0  0  0
    0.6196  -14.9229   -6.8336 F   0  0  0  0  0  0  0  0  0  0  0  0
   -3.1088  -11.7547   -6.7496 C   0  0  0  0  0  0  0  0  0  0  0  0
   -3.9376  -11.9528   -5.4955 C   0  0  0  0  0  0  0  0  0  0  0  0
   -4.6373  -10.8665   -5.0295 N   0  0  0  0  0  0  0  0  0  0  0  0
   -3.9698  -13.0130   -4.9059 O   0  0  0  0  0  0  0  0  0  0  0  0
   -5.4716  -10.8100   -3.8881 C   0  0  0  0  0  0  0  0  0  0  0  0
   -6.8395  -10.5522   -3.9901 C   0  0  0  0  0  0  0  0  0  0  0  0
   -7.5977  -10.5306   -2.8195 C   0  0  0  0  0  0  0  0  0  0  0  0
   -7.0137  -10.7244   -1.5636 C   0  0  0  0  0  0  0  0  0  0  0  0
   -5.6431  -10.9592   -1.4837 C   0  0  0  0  0  0  0  0  0  0  0  0
   -4.8696  -11.0049   -2.6425 C   0  0  0  0  0  0  0  0  0  0  0  0
   -9.0199  -10.3108   -2.9083 N   0  0  0  0  0  0  0  0  0  0  0  0
   -9.6806   -9.3996   -2.2111 N   0  0  0  0  0  0  0  0  0  0  0  0
  -10.9259   -9.5249   -2.5719 N   0  0  0  0  0  0  0  0  0  0  0  0
  -11.0558  -10.5167   -3.4956 N   0  0  0  0  0  0  0  0  0  0  0  0
   -9.8732  -10.9746   -3.6756 C   0  0  0  0  0  0  0  0  0  0  0  0
   -0.6029  -12.7186   -6.3468 H   0  0  0  0  0  0  0  0  0  0  0  0
   -4.2394  -13.8637   -7.9884 H   0  0  0  0  0  0  0  0  0  0  0  0
   -3.3237  -15.9988   -8.5488 H   0  0  0  0  0  0  0  0  0  0  0  0
   -1.0372  -16.5021   -8.0062 H   0  0  0  0  0  0  0  0  0  0  0  0
   -3.6891  -11.4260   -7.4947 H   0  0  0  0  0  0  0  0  0  0  0  0
   -2.3804  -11.0917   -6.5770 H   0  0  0  0  0  0  0  0  0  0  0  0
   -4.5470  -10.0210   -5.5559 H   0  0  0  0  0  0  0  0  0  0  0  0
   -7.2652  -10.3872   -4.8797 H   0  0  0  0  0  0  0  0  0  0  0  0
   -7.5722  -10.6949   -0.7346 H   0  0  0  0  0  0  0  0  0  0  0  0
   -5.2122  -11.0956   -0.5916 H   0  0  0  0  0  0  0  0  0  0  0  0
   -3.8862  -11.1767   -2.5824 H   0  0  0  0  0  0  0  0  0  0  0  0
   -9.6309  -11.7182   -4.2988 H   0  0  0  0  0  0  0  0  0  0  0  0
  1  2  2  0  0  0  0
  1  6  1  0  0  0  0
  1 23  1  0  0  0  0
  2  3  1  0  0  0  0
  2  8  1  0  0  0  0
  3  4  2  0  0  0  0
  3 24  1  0  0  0  0
  4  5  1  0  0  0  0
  4 25  1  0  0  0  0
  5  6  2  0  0  0  0
  5 26  1  0  0  0  0
  6  7  1  0  0  0  0
  8  9  1  0  0  0  0
  8 27  1  0  0  0  0
  8 28  1  0  0  0  0
  9 10  1  0  0  0  0
  9 11  2  0  0  0  0
 10 12  1  0  0  0  0
 10 29  1  0  0  0  0
 12 13  2  0  0  0  0
 12 17  1  0  0  0  0
 13 14  1  0  0  0  0
 13 30  1  0  0  0  0
 14 15  2  0  0  0  0
 14 18  1  0  0  0  0
 15 16  1  0  0  0  0
 15 31  1  0  0  0  0
 16 17  2  0  0  0  0
 16 32  1  0  0  0  0
 17 33  1  0  0  0  0
 18 19  1  0  0  0  0
 18 22  1  0  0  0  0
 19 20  2  0  0  0  0
 20 21  1  0  0  0  0
 21 22  2  0  0  0  0
 22 34  1  0  0  0  0
M  END
>  <BIOSOLVEIT.HYDE_ESTIMATED_AFFINITY_LOWER_BOUNDARY [nM]>
11081283.249692

>  <BIOSOLVEIT.HYDE_ESTIMATED_AFFINITY_UPPER_BOUNDARY [nM]>
1100991008.588654

>  <BIOSOLVEIT.HYDE_LIGAND_EFFICIENCY range: ++, +, 0, -, -->
--

>  <BIOSOLVEIT.HYDE_LIGAND_LIPOPHILIC_EFFICIENCY range: ++, +, 0, -, -->
--

>  <BIOSOLVEIT.INTER_CLASH range: red, yellow, green>
green

>  <BIOSOLVEIT.INTRA_CLASH range: red, yellow, green>
green

>  <BIOSOLVEIT.LOGP>
1.9826

>  <BIOSOLVEIT.MOLECULAR WEIGHT>
297.292

>  <BIOSOLVEIT.MOLECULE_CHECKSUM>
LTUuNDYxNTswLjI0ODI1

>  <BIOSOLVEIT.TORSION_QUALITY range: red, yellow, green, not rotatable>
red

>  <BIOSOLVEIT.TPSA>
72.7

$$$$
