PV-001799429813.****
 OpenBabel12172121453D
Hydescorer 1.1.2 b8048283
 55 58  0  0  0  0  0  0  0  0999 V2000
   -5.3041  -12.8230    2.2751 C   0  0  0  0  0  0  0  0  0  0  0  0
   -6.6360  -13.2041    2.3754 C   0  0  0  0  0  0  0  0  0  0  0  0
   -7.1117  -13.8716    3.5171 C   0  0  0  0  0  0  0  0  0  0  0  0
   -6.2078  -14.1541    4.5605 C   0  0  0  0  0  0  0  0  0  0  0  0
   -4.8738  -13.7738    4.4638 C   0  0  0  0  0  0  0  0  0  0  0  0
   -4.4286  -13.1176    3.3204 C   0  0  0  0  0  0  0  0  0  0  0  0
   -8.5248  -14.2587    3.5920 C   0  0  0  0  0  0  0  0  0  0  0  0
   -9.5063  -13.3541    3.2675 N   0  0  0  0  0  0  0  0  0  0  0  0
   -8.8989  -15.3721    3.9335 O   0  0  0  0  0  0  0  0  0  0  0  0
  -10.9469  -13.7021    3.3288 C   0  0  1  0  0  0  0  0  0  0  0  0
  -11.8241  -12.4889    2.9633 C   0  0  0  0  0  0  0  0  0  0  0  0
  -11.5637  -12.4020    1.5247 N   0  3  1  0  0  0  0  0  0  0  0  0
  -11.7623  -13.7698    1.0267 C   0  0  0  0  0  0  0  0  0  0  0  0
  -11.2218  -14.6597    2.1639 C   0  0  0  0  0  0  0  0  0  0  0  0
  -12.5156  -11.4637    0.9015 C   0  0  0  0  0  0  0  0  0  0  0  0
  -12.3810  -11.6718   -0.6205 C   0  0  0  0  0  0  0  0  0  0  0  0
  -13.5463  -11.0570   -1.4067 C   0  0  0  0  0  0  0  0  0  0  0  0
  -12.9719  -10.8309   -2.8085 C   0  0  0  0  0  0  0  0  0  0  0  0
  -11.4493  -10.7801   -2.6443 C   0  0  0  0  0  0  0  0  0  0  0  0
  -11.1901  -10.8637   -1.1391 C   0  0  0  0  0  0  0  0  0  0  0  0
   -3.1036  -12.7550    3.2616 O   0  0  0  0  0  0  0  0  0  0  0  0
   -2.0536  -13.6461    3.1587 C   0  0  0  0  0  0  0  0  0  0  0  0
   -0.7936  -13.2451    3.6000 C   0  0  0  0  0  0  0  0  0  0  0  0
    0.2579  -14.0640    3.5248 N   0  0  0  0  0  0  0  0  0  0  0  0
    0.1006  -15.2944    3.0257 C   0  0  0  0  0  0  0  0  0  0  0  0
   -1.1372  -15.7555    2.5784 C   0  0  0  0  0  0  0  0  0  0  0  0
   -2.2464  -14.9235    2.6435 C   0  0  0  0  0  0  0  0  0  0  0  0
   -4.9761  -12.3423    1.4619 H   0  0  0  0  0  0  0  0  0  0  0  0
   -7.2649  -13.0009    1.6250 H   0  0  0  0  0  0  0  0  0  0  0  0
   -6.5285  -14.6324    5.3780 H   0  0  0  0  0  0  0  0  0  0  0  0
   -4.2388  -13.9704    5.2108 H   0  0  0  0  0  0  0  0  0  0  0  0
   -9.2415  -12.4332    2.9813 H   0  0  0  0  0  0  0  0  0  0  0  0
  -11.2014  -14.0988    4.2108 H   0  0  0  0  0  0  0  0  0  0  0  0
  -11.5305  -11.6621    3.4431 H   0  0  0  0  0  0  0  0  0  0  0  0
  -12.7905  -12.6600    3.1547 H   0  0  0  0  0  0  0  0  0  0  0  0
  -11.2478  -13.9195    0.1825 H   0  0  0  0  0  0  0  0  0  0  0  0
  -12.7319  -13.9516    0.8627 H   0  0  0  0  0  0  0  0  0  0  0  0
  -11.9015  -15.3447    2.4262 H   0  0  0  0  0  0  0  0  0  0  0  0
  -10.3793  -15.1177    1.8803 H   0  0  0  0  0  0  0  0  0  0  0  0
  -12.2852  -10.5216    1.1453 H   0  0  0  0  0  0  0  0  0  0  0  0
  -13.4485  -11.6664    1.1989 H   0  0  0  0  0  0  0  0  0  0  0  0
  -12.2758  -12.6418   -0.8395 H   0  0  0  0  0  0  0  0  0  0  0  0
  -13.8337  -10.1912   -0.9968 H   0  0  0  0  0  0  0  0  0  0  0  0
  -14.3238  -11.6850   -1.4386 H   0  0  0  0  0  0  0  0  0  0  0  0
  -13.3087   -9.9683   -3.1860 H   0  0  0  0  0  0  0  0  0  0  0  0
  -13.2301  -11.5834   -3.4143 H   0  0  0  0  0  0  0  0  0  0  0  0
  -11.0876   -9.9238   -3.0130 H   0  0  0  0  0  0  0  0  0  0  0  0
  -11.0222  -11.5523   -3.1147 H   0  0  0  0  0  0  0  0  0  0  0  0
  -10.3283  -11.3343   -0.9498 H   0  0  0  0  0  0  0  0  0  0  0  0
  -11.1696   -9.9524   -0.7282 H   0  0  0  0  0  0  0  0  0  0  0  0
   -0.6753  -12.3275    3.9798 H   0  0  0  0  0  0  0  0  0  0  0  0
    0.8935  -15.9015    2.9716 H   0  0  0  0  0  0  0  0  0  0  0  0
   -1.2254  -16.6819    2.2123 H   0  0  0  0  0  0  0  0  0  0  0  0
   -3.1462  -15.2297    2.3329 H   0  0  0  0  0  0  0  0  0  0  0  0
  -10.6234  -12.1047    1.3589 H   0  0  0  0  0  0  0  0  0  0  0  0
  1  2  2  0  0  0  0
  1  6  1  0  0  0  0
  1 28  1  0  0  0  0
  2  3  1  0  0  0  0
  2 29  1  0  0  0  0
  3  4  2  0  0  0  0
  3  7  1  0  0  0  0
  4  5  1  0  0  0  0
  4 30  1  0  0  0  0
  5  6  2  0  0  0  0
  5 31  1  0  0  0  0
  6 21  1  0  0  0  0
  7  8  1  0  0  0  0
  7  9  2  0  0  0  0
  8 10  1  0  0  0  0
  8 32  1  0  0  0  0
 10 11  1  0  0  0  0
 10 14  1  0  0  0  0
 10 33  1  1  0  0  0
 11 12  1  0  0  0  0
 11 34  1  0  0  0  0
 11 35  1  0  0  0  0
 12 13  1  0  0  0  0
 12 15  1  0  0  0  0
 12 55  1  6  0  0  0
 13 14  1  0  0  0  0
 13 36  1  0  0  0  0
 13 37  1  0  0  0  0
 14 38  1  0  0  0  0
 14 39  1  0  0  0  0
 15 16  1  0  0  0  0
 15 40  1  0  0  0  0
 15 41  1  0  0  0  0
 16 17  1  0  0  0  0
 16 20  1  0  0  0  0
 16 42  1  0  0  0  0
 17 18  1  0  0  0  0
 17 43  1  0  0  0  0
 17 44  1  0  0  0  0
 18 19  1  0  0  0  0
 18 45  1  0  0  0  0
 18 46  1  0  0  0  0
 19 20  1  0  0  0  0
 19 47  1  0  0  0  0
 19 48  1  0  0  0  0
 20 49  1  0  0  0  0
 20 50  1  0  0  0  0
 21 22  1  0  0  0  0
 22 23  2  0  0  0  0
 22 27  1  0  0  0  0
 23 24  1  0  0  0  0
 23 51  1  0  0  0  0
 24 25  2  0  0  0  0
 25 26  1  0  0  0  0
 25 52  1  0  0  0  0
 26 27  2  0  0  0  0
 26 53  1  0  0  0  0
 27 54  1  0  0  0  0
M  CHG  1  12   1
M  END
>  <BIOSOLVEIT.HYDE_ESTIMATED_AFFINITY_LOWER_BOUNDARY [nM]>
58795126467.803505

>  <BIOSOLVEIT.HYDE_ESTIMATED_AFFINITY_UPPER_BOUNDARY [nM]>
5841643438875.343750

>  <BIOSOLVEIT.HYDE_LIGAND_EFFICIENCY range: ++, +, 0, -, -->
--

>  <BIOSOLVEIT.HYDE_LIGAND_LIPOPHILIC_EFFICIENCY range: ++, +, 0, -, -->
--

>  <BIOSOLVEIT.INTER_CLASH range: red, yellow, green>
green

>  <BIOSOLVEIT.INTRA_CLASH range: red, yellow, green>
green

>  <BIOSOLVEIT.LOGP>
2.4511

>  <BIOSOLVEIT.MOLECULAR WEIGHT>
366.482

>  <BIOSOLVEIT.MOLECULE_CHECKSUM>
MTUuNzk5NDsw

>  <BIOSOLVEIT.TORSION_QUALITY range: red, yellow, green, not rotatable>
green

>  <BIOSOLVEIT.TPSA>
55.66

$$$$
