Z28051555.****
 OpenBabel12172121453D
Hydescorer 1.1.2 b8048283
 34 36  0  0  0  0  0  0  0  0999 V2000
  -13.1807  -11.5178   -2.6875 C   0  0  0  0  0  0  0  0  0  0  0  0
  -12.2700  -10.7362   -1.9740 C   0  0  0  0  0  0  0  0  0  0  0  0
  -12.0711  -10.9875   -0.6127 C   0  0  0  0  0  0  0  0  0  0  0  0
  -12.7651  -12.0112    0.0343 C   0  0  0  0  0  0  0  0  0  0  0  0
  -13.6704  -12.7948   -0.6762 C   0  0  0  0  0  0  0  0  0  0  0  0
  -13.8607  -12.5308   -2.0241 C   0  0  0  0  0  0  0  0  0  0  0  0
  -14.7381  -13.2887   -2.7211 F   0  0  0  0  0  0  0  0  0  0  0  0
  -11.4950   -9.6246   -2.6680 C   0  0  0  0  0  0  0  0  0  0  0  0
  -10.1138  -10.1653   -2.9818 C   0  0  0  0  0  0  0  0  0  0  0  0
   -9.1282   -9.9429   -2.0511 N   0  0  0  0  0  0  0  0  0  0  0  0
   -9.8708  -10.7490   -4.0176 O   0  0  0  0  0  0  0  0  0  0  0  0
   -7.7747  -10.3486   -2.1228 C   0  0  0  0  0  0  0  0  0  0  0  0
   -7.0803  -10.3803   -3.3332 C   0  0  0  0  0  0  0  0  0  0  0  0
   -5.7426  -10.7749   -3.3183 C   0  0  0  0  0  0  0  0  0  0  0  0
   -5.1065  -11.1669   -2.1362 C   0  0  0  0  0  0  0  0  0  0  0  0
   -5.8247  -11.1477   -0.9429 C   0  0  0  0  0  0  0  0  0  0  0  0
   -7.1571  -10.7377   -0.9315 C   0  0  0  0  0  0  0  0  0  0  0  0
   -4.9959  -10.7708   -4.5517 N   0  0  0  0  0  0  0  0  0  0  0  0
   -3.7366  -11.1633   -4.6647 N   0  0  0  0  0  0  0  0  0  0  0  0
   -3.4359  -11.0016   -5.9218 N   0  0  0  0  0  0  0  0  0  0  0  0
   -4.5032  -10.5045   -6.6057 N   0  0  0  0  0  0  0  0  0  0  0  0
   -5.4363  -10.3750   -5.7380 C   0  0  0  0  0  0  0  0  0  0  0  0
  -13.3406  -11.3509   -3.6604 H   0  0  0  0  0  0  0  0  0  0  0  0
  -11.4236  -10.4268   -0.0965 H   0  0  0  0  0  0  0  0  0  0  0  0
  -12.6121  -12.1818    1.0077 H   0  0  0  0  0  0  0  0  0  0  0  0
  -14.1726  -13.5320   -0.2242 H   0  0  0  0  0  0  0  0  0  0  0  0
  -11.4226   -8.8301   -2.0651 H   0  0  0  0  0  0  0  0  0  0  0  0
  -11.9592   -9.3603   -3.5134 H   0  0  0  0  0  0  0  0  0  0  0  0
   -9.3976   -9.4378   -1.2311 H   0  0  0  0  0  0  0  0  0  0  0  0
   -7.5305  -10.1266   -4.1893 H   0  0  0  0  0  0  0  0  0  0  0  0
   -4.1495  -11.4568   -2.1474 H   0  0  0  0  0  0  0  0  0  0  0  0
   -5.3828  -11.4292   -0.0912 H   0  0  0  0  0  0  0  0  0  0  0  0
   -7.6694  -10.7221   -0.0729 H   0  0  0  0  0  0  0  0  0  0  0  0
   -6.3554  -10.0287   -5.9262 H   0  0  0  0  0  0  0  0  0  0  0  0
  1  2  2  0  0  0  0
  1  6  1  0  0  0  0
  1 23  1  0  0  0  0
  2  3  1  0  0  0  0
  2  8  1  0  0  0  0
  3  4  2  0  0  0  0
  3 24  1  0  0  0  0
  4  5  1  0  0  0  0
  4 25  1  0  0  0  0
  5  6  2  0  0  0  0
  5 26  1  0  0  0  0
  6  7  1  0  0  0  0
  8  9  1  0  0  0  0
  8 27  1  0  0  0  0
  8 28  1  0  0  0  0
  9 10  1  0  0  0  0
  9 11  2  0  0  0  0
 10 12  1  0  0  0  0
 10 29  1  0  0  0  0
 12 13  2  0  0  0  0
 12 17  1  0  0  0  0
 13 14  1  0  0  0  0
 13 30  1  0  0  0  0
 14 15  2  0  0  0  0
 14 18  1  0  0  0  0
 15 16  1  0  0  0  0
 15 31  1  0  0  0  0
 16 17  2  0  0  0  0
 16 32  1  0  0  0  0
 17 33  1  0  0  0  0
 18 19  1  0  0  0  0
 18 22  1  0  0  0  0
 19 20  2  0  0  0  0
 20 21  1  0  0  0  0
 21 22  2  0  0  0  0
 22 34  1  0  0  0  0
M  END
>  <BIOSOLVEIT.HYDE_ESTIMATED_AFFINITY_LOWER_BOUNDARY [nM]>
848232479.143512

>  <BIOSOLVEIT.HYDE_ESTIMATED_AFFINITY_UPPER_BOUNDARY [nM]>
84276911950.229324

>  <BIOSOLVEIT.HYDE_LIGAND_EFFICIENCY range: ++, +, 0, -, -->
--

>  <BIOSOLVEIT.HYDE_LIGAND_LIPOPHILIC_EFFICIENCY range: ++, +, 0, -, -->
--

>  <BIOSOLVEIT.INTER_CLASH range: red, yellow, green>
green

>  <BIOSOLVEIT.INTRA_CLASH range: red, yellow, green>
green

>  <BIOSOLVEIT.LOGP>
1.9826

>  <BIOSOLVEIT.MOLECULAR WEIGHT>
297.292

>  <BIOSOLVEIT.MOLECULE_CHECKSUM>
NS4yOTE5Njsw

>  <BIOSOLVEIT.TORSION_QUALITY range: red, yellow, green, not rotatable>
green

>  <BIOSOLVEIT.TPSA>
72.7

$$$$
