Z1544592819.****
 OpenBabel12172121453D
Hydescorer 1.1.2 b8048283
 45 47  0  0  0  0  0  0  0  0999 V2000
   -1.0680  -17.8809    3.5006 C   0  0  0  0  0  0  0  0  0  0  0  0
   -0.4225  -16.9475    4.3092 C   0  0  0  0  0  0  0  0  0  0  0  0
   -1.1905  -16.0447    5.0508 C   0  0  0  0  0  0  0  0  0  0  0  0
   -2.5827  -16.0541    5.0049 C   0  0  0  0  0  0  0  0  0  0  0  0
   -3.2013  -16.9930    4.1846 C   0  0  0  0  0  0  0  0  0  0  0  0
   -2.4592  -17.9072    3.4359 C   0  0  0  0  0  0  0  0  0  0  0  0
   -0.5280  -15.0821    5.8764 N   0  0  0  0  0  0  0  0  0  0  0  0
   -0.1602  -13.8358    5.5240 C   0  0  0  0  0  0  0  0  0  0  0  0
    0.4205  -13.2490    6.5289 N   0  0  0  0  0  0  0  0  0  0  0  0
    0.4249  -14.1561    7.5728 N   0  0  0  0  0  0  0  0  0  0  0  0
   -0.1448  -15.2364    7.1619 C   0  0  0  0  0  0  0  0  0  0  0  0
   -0.4553  -13.1797    3.9355 S   0  0  0  0  0  0  0  0  0  0  0  0
   -0.3768  -16.5062    7.9521 C   0  0  0  0  0  0  0  0  0  0  0  0
   -4.6019  -17.0192    4.1108 N   0  0  0  0  0  0  0  0  0  0  0  0
   -5.4278  -17.6010    5.0225 C   0  0  0  0  0  0  0  0  0  0  0  0
   -4.8728  -18.1252    5.9642 O   0  0  0  0  0  0  0  0  0  0  0  0
   -6.9407  -17.5858    4.8692 C   0  0  0  0  0  0  0  0  0  0  0  0
   -7.5617  -18.2865    6.0800 C   0  0  0  0  0  0  0  0  0  0  0  0
   -7.6155  -19.6843    6.1906 C   0  0  0  0  0  0  0  0  0  0  0  0
   -8.1822  -20.2594    7.3269 C   0  0  0  0  0  0  0  0  0  0  0  0
   -8.7012  -19.4656    8.3422 C   0  0  0  0  0  0  0  0  0  0  0  0
   -8.6658  -18.0811    8.2331 C   0  0  0  0  0  0  0  0  0  0  0  0
   -8.1055  -17.5005    7.0996 C   0  0  0  0  0  0  0  0  0  0  0  0
   -7.0758  -20.6049    5.1104 C   0  0  0  0  0  0  0  0  0  0  0  0
   -9.2477  -17.2102    9.3253 C   0  0  0  0  0  0  0  0  0  0  0  0
   -0.5313  -18.5334    2.9656 H   0  0  0  0  0  0  0  0  0  0  0  0
    0.5760  -16.9238    4.3584 H   0  0  0  0  0  0  0  0  0  0  0  0
   -3.1208  -15.4065    5.5444 H   0  0  0  0  0  0  0  0  0  0  0  0
   -2.9232  -18.5772    2.8565 H   0  0  0  0  0  0  0  0  0  0  0  0
   -0.0127  -16.3946    8.8767 H   0  0  0  0  0  0  0  0  0  0  0  0
   -1.3578  -16.6942    8.0006 H   0  0  0  0  0  0  0  0  0  0  0  0
    0.0869  -17.2688    7.5010 H   0  0  0  0  0  0  0  0  0  0  0  0
   -5.0285  -16.5739    3.3236 H   0  0  0  0  0  0  0  0  0  0  0  0
   -7.1993  -18.0676    4.0319 H   0  0  0  0  0  0  0  0  0  0  0  0
   -7.2652  -16.6410    4.8238 H   0  0  0  0  0  0  0  0  0  0  0  0
   -8.2157  -21.2552    7.4122 H   0  0  0  0  0  0  0  0  0  0  0  0
   -9.1011  -19.8919    9.1535 H   0  0  0  0  0  0  0  0  0  0  0  0
   -8.0915  -16.5044    7.0131 H   0  0  0  0  0  0  0  0  0  0  0  0
   -7.2118  -21.5567    5.3851 H   0  0  0  0  0  0  0  0  0  0  0  0
   -7.5607  -20.4328    4.2529 H   0  0  0  0  0  0  0  0  0  0  0  0
   -6.0994  -20.4313    4.9818 H   0  0  0  0  0  0  0  0  0  0  0  0
   -9.1347  -16.2474    9.0795 H   0  0  0  0  0  0  0  0  0  0  0  0
  -10.2206  -17.4149    9.4321 H   0  0  0  0  0  0  0  0  0  0  0  0
   -8.7722  -17.3926   10.1859 H   0  0  0  0  0  0  0  0  0  0  0  0
    0.7922  -12.3208    6.5440 H   0  0  0  0  0  0  0  0  0  0  0  0
  1  2  2  0  0  0  0
  1  6  1  0  0  0  0
  1 26  1  0  0  0  0
  2  3  1  0  0  0  0
  2 27  1  0  0  0  0
  3  4  2  0  0  0  0
  3  7  1  0  0  0  0
  4  5  1  0  0  0  0
  4 28  1  0  0  0  0
  5  6  2  0  0  0  0
  5 14  1  0  0  0  0
  6 29  1  0  0  0  0
  7  8  1  0  0  0  0
  7 11  1  0  0  0  0
  8  9  1  0  0  0  0
  8 12  2  0  0  0  0
  9 10  1  0  0  0  0
  9 45  1  0  0  0  0
 10 11  2  0  0  0  0
 11 13  1  0  0  0  0
 13 30  1  0  0  0  0
 13 31  1  0  0  0  0
 13 32  1  0  0  0  0
 14 15  1  0  0  0  0
 14 33  1  0  0  0  0
 15 16  2  0  0  0  0
 15 17  1  0  0  0  0
 17 18  1  0  0  0  0
 17 34  1  0  0  0  0
 17 35  1  0  0  0  0
 18 19  2  0  0  0  0
 18 23  1  0  0  0  0
 19 20  1  0  0  0  0
 19 24  1  0  0  0  0
 20 21  2  0  0  0  0
 20 36  1  0  0  0  0
 21 22  1  0  0  0  0
 21 37  1  0  0  0  0
 22 23  2  0  0  0  0
 22 25  1  0  0  0  0
 23 38  1  0  0  0  0
 24 39  1  0  0  0  0
 24 40  1  0  0  0  0
 24 41  1  0  0  0  0
 25 42  1  0  0  0  0
 25 43  1  0  0  0  0
 25 44  1  0  0  0  0
M  END
>  <BIOSOLVEIT.HYDE_ESTIMATED_AFFINITY_LOWER_BOUNDARY [nM]>
193003784.743895

>  <BIOSOLVEIT.HYDE_ESTIMATED_AFFINITY_UPPER_BOUNDARY [nM]>
19176067142.991665

>  <BIOSOLVEIT.HYDE_LIGAND_EFFICIENCY range: ++, +, 0, -, -->
--

>  <BIOSOLVEIT.HYDE_LIGAND_LIPOPHILIC_EFFICIENCY range: ++, +, 0, -, -->
--

>  <BIOSOLVEIT.INTER_CLASH range: red, yellow, green>
green

>  <BIOSOLVEIT.INTRA_CLASH range: red, yellow, green>
green

>  <BIOSOLVEIT.LOGP>
3.51254

>  <BIOSOLVEIT.MOLECULAR WEIGHT>
352.459

>  <BIOSOLVEIT.MOLECULE_CHECKSUM>
MS42MjI7MA==

>  <BIOSOLVEIT.TORSION_QUALITY range: red, yellow, green, not rotatable>
yellow

>  <BIOSOLVEIT.TPSA>
56.73

$$$$
