Z1344352878.****
 OpenBabel12172121453D
Hydescorer 1.1.2 b8048283
 43 44  0  0  0  0  0  0  0  0999 V2000
   -5.7373  -10.3660   -4.1765 C   0  0  0  0  0  0  0  0  0  0  0  0
   -4.8298  -11.0892   -3.4102 C   0  0  0  0  0  0  0  0  0  0  0  0
   -5.0723  -11.2737   -2.0583 C   0  0  0  0  0  0  0  0  0  0  0  0
   -6.2214  -10.7124   -1.5212 C   0  0  0  0  0  0  0  0  0  0  0  0
   -7.0960   -9.9999   -2.3408 C   0  0  0  0  0  0  0  0  0  0  0  0
   -6.8512   -9.8516   -3.6456 N   0  0  0  0  0  0  0  0  0  0  0  0
   -8.3419   -9.3571   -1.7626 C   0  0  0  0  0  0  0  0  0  0  0  0
   -9.4980  -10.3795   -1.7653 C   0  0  0  0  0  0  0  0  0  0  0  0
  -10.2784  -10.4218   -3.0792 C   0  0  0  0  0  0  0  0  0  0  0  0
  -11.5651  -10.0209   -3.1510 N   0  0  0  0  0  0  0  0  0  0  0  0
   -9.7102  -10.8380   -4.0804 O   0  0  0  0  0  0  0  0  0  0  0  0
  -12.1892   -9.2073   -2.0901 C   0  0  0  0  0  0  0  0  0  0  0  0
  -12.6979  -10.2384   -1.0486 C   0  0  0  0  0  0  0  0  0  0  0  0
  -13.6982  -11.1702   -1.7028 N   0  3  0  0  0  0  0  0  0  0  0  0
  -13.0126  -11.9184   -2.8236 C   0  0  0  0  0  0  0  0  0  0  0  0
  -12.5346  -10.8824   -3.8689 C   0  0  0  0  0  0  0  0  0  0  0  0
  -14.2532  -12.1943   -0.6706 C   0  0  2  0  0  0  0  0  0  0  0  0
  -15.2666  -11.5756    0.3927 C   0  0  0  0  0  0  0  0  0  0  0  0
  -13.0820  -12.9130    0.0572 C   0  0  0  0  0  0  0  0  0  0  0  0
  -16.2674  -10.9448   -0.2322 F   0  0  0  0  0  0  0  0  0  0  0  0
  -15.7602  -12.5399    1.1945 F   0  0  0  0  0  0  0  0  0  0  0  0
  -14.5878  -10.6961    1.1487 F   0  0  0  0  0  0  0  0  0  0  0  0
   -5.5520  -10.2272   -5.1493 H   0  0  0  0  0  0  0  0  0  0  0  0
   -4.0082  -11.4734   -3.8315 H   0  0  0  0  0  0  0  0  0  0  0  0
   -4.4383  -11.7955   -1.4875 H   0  0  0  0  0  0  0  0  0  0  0  0
   -6.4223  -10.8186   -0.5473 H   0  0  0  0  0  0  0  0  0  0  0  0
   -8.5963   -8.5651   -2.3175 H   0  0  0  0  0  0  0  0  0  0  0  0
   -8.1601   -9.0624   -0.8245 H   0  0  0  0  0  0  0  0  0  0  0  0
  -10.1318  -10.1413   -1.0293 H   0  0  0  0  0  0  0  0  0  0  0  0
   -9.1163  -11.2881   -1.5955 H   0  0  0  0  0  0  0  0  0  0  0  0
  -12.9503   -8.6729   -2.4577 H   0  0  0  0  0  0  0  0  0  0  0  0
  -11.5180   -8.5915   -1.6775 H   0  0  0  0  0  0  0  0  0  0  0  0
  -13.1381   -9.7566   -0.2908 H   0  0  0  0  0  0  0  0  0  0  0  0
  -11.9252  -10.7700   -0.7016 H   0  0  0  0  0  0  0  0  0  0  0  0
  -13.6548  -12.5568   -3.2479 H   0  0  0  0  0  0  0  0  0  0  0  0
  -12.2285  -12.4242   -2.4640 H   0  0  0  0  0  0  0  0  0  0  0  0
  -12.0919  -11.3411   -4.6394 H   0  0  0  0  0  0  0  0  0  0  0  0
  -13.3056  -10.3398   -4.2022 H   0  0  0  0  0  0  0  0  0  0  0  0
  -14.7533  -12.8908   -1.1850 H   0  0  0  0  0  0  0  0  0  0  0  0
  -13.4511  -13.5676    0.7169 H   0  0  0  0  0  0  0  0  0  0  0  0
  -12.5196  -13.3967   -0.6134 H   0  0  0  0  0  0  0  0  0  0  0  0
  -12.5221  -12.2369    0.5360 H   0  0  0  0  0  0  0  0  0  0  0  0
  -14.4548  -10.6339   -2.0768 H   0  0  0  0  0  0  0  0  0  0  0  0
  1  2  2  0  0  0  0
  1  6  1  0  0  0  0
  1 23  1  0  0  0  0
  2  3  1  0  0  0  0
  2 24  1  0  0  0  0
  3  4  2  0  0  0  0
  3 25  1  0  0  0  0
  4  5  1  0  0  0  0
  4 26  1  0  0  0  0
  5  6  2  0  0  0  0
  5  7  1  0  0  0  0
  7  8  1  0  0  0  0
  7 27  1  0  0  0  0
  7 28  1  0  0  0  0
  8  9  1  0  0  0  0
  8 29  1  0  0  0  0
  8 30  1  0  0  0  0
  9 10  1  0  0  0  0
  9 11  2  0  0  0  0
 10 12  1  0  0  0  0
 10 16  1  0  0  0  0
 12 13  1  0  0  0  0
 12 31  1  0  0  0  0
 12 32  1  0  0  0  0
 13 14  1  0  0  0  0
 13 33  1  0  0  0  0
 13 34  1  0  0  0  0
 14 15  1  0  0  0  0
 14 17  1  0  0  0  0
 14 43  1  0  0  0  0
 15 16  1  0  0  0  0
 15 35  1  0  0  0  0
 15 36  1  0  0  0  0
 16 37  1  0  0  0  0
 16 38  1  0  0  0  0
 17 18  1  0  0  0  0
 17 19  1  0  0  0  0
 17 39  1  6  0  0  0
 18 20  1  0  0  0  0
 18 21  1  0  0  0  0
 18 22  1  0  0  0  0
 19 40  1  0  0  0  0
 19 41  1  0  0  0  0
 19 42  1  0  0  0  0
M  CHG  1  14   1
M  END
>  <BIOSOLVEIT.HYDE_ESTIMATED_AFFINITY_LOWER_BOUNDARY [nM]>
10531860.523601

>  <BIOSOLVEIT.HYDE_ESTIMATED_AFFINITY_UPPER_BOUNDARY [nM]>
1046402612.307207

>  <BIOSOLVEIT.HYDE_LIGAND_EFFICIENCY range: ++, +, 0, -, -->
--

>  <BIOSOLVEIT.HYDE_LIGAND_LIPOPHILIC_EFFICIENCY range: ++, +, 0, -, -->
--

>  <BIOSOLVEIT.INTER_CLASH range: red, yellow, green>
green

>  <BIOSOLVEIT.INTRA_CLASH range: red, yellow, green>
green

>  <BIOSOLVEIT.LOGP>
0.6921

>  <BIOSOLVEIT.MOLECULAR WEIGHT>
316.345

>  <BIOSOLVEIT.MOLECULE_CHECKSUM>
LTUuNTg3NTY7MC4yNTM5OA==

>  <BIOSOLVEIT.TORSION_QUALITY range: red, yellow, green, not rotatable>
green

>  <BIOSOLVEIT.TPSA>
37.64

$$$$
