G3.sdf
 OpenBabel12172121453D
Hydescorer 1.1.2 b8048283
 66 68  0  0  0  0  0  0  0  0999 V2000
   -1.8164  -13.8515   -6.7334 C   0  0  0  0  0  0  0  0  0  0  0  0
   -1.1346  -12.9885   -5.8812 C   0  0  0  0  0  0  0  0  0  0  0  0
   -1.8272  -12.0080   -5.1773 C   0  0  0  0  0  0  0  0  0  0  0  0
   -3.2102  -11.8865   -5.3321 C   0  0  0  0  0  0  0  0  0  0  0  0
   -3.9037  -12.7574   -6.1761 C   0  0  0  0  0  0  0  0  0  0  0  0
   -3.2010  -13.7340   -6.8766 C   0  0  0  0  0  0  0  0  0  0  0  0
   -4.0498  -14.8145   -7.9329 Cl  0  0  0  0  0  0  0  0  0  0  0  0
   -3.8588  -10.8818   -4.6030 N   0  0  0  0  0  0  0  0  0  0  0  0
   -5.3200  -10.7499   -4.6237 C   0  0  0  0  0  0  0  0  0  0  0  0
   -5.7698  -10.8417   -3.1764 C   0  0  0  0  0  0  0  0  0  0  0  0
   -6.9305  -10.3583   -2.6395 C   0  0  0  0  0  0  0  0  0  0  0  0
   -7.0557  -10.6248   -1.2663 C   0  0  0  0  0  0  0  0  0  0  0  0
   -5.9884  -11.3109   -0.7599 C   0  0  0  0  0  0  0  0  0  0  0  0
   -4.7985  -11.6185   -1.9716 S   0  0  0  0  0  0  0  0  0  0  0  0
   -5.7584  -11.7795    0.6484 C   0  0  0  0  0  0  0  0  0  0  0  0
   -6.6420  -12.9349    0.7156 N   0  3  0  0  0  0  0  0  0  0  0  0
   -6.6115  -13.4258    2.1223 C   0  0  2  0  0  0  0  0  0  0  0  0
   -5.2093  -14.0000    2.4594 C   0  0  0  0  0  0  0  0  0  0  0  0
   -7.7607  -14.4241    2.3415 C   0  0  0  0  0  0  0  0  0  0  0  0
   -8.1124  -14.6608    3.8247 C   0  0  0  0  0  0  0  0  0  0  0  0
   -9.6363  -14.6972    4.0614 C   0  0  0  0  0  0  0  0  0  0  0  0
   -9.9596  -14.9995    5.5319 C   0  0  0  0  0  0  0  0  0  0  0  0
   -9.3120  -16.3142    5.9841 C   0  0  0  0  0  0  0  0  0  0  0  0
   -7.7961  -16.2800    5.7542 C   0  0  0  0  0  0  0  0  0  0  0  0
   -7.4723  -15.9847    4.2830 C   0  0  0  0  0  0  0  0  0  0  0  0
   -5.0299  -15.2083    2.3757 O   0  0  0  0  0  0  0  0  0  0  0  0
   -4.3340  -13.1901    3.0637 N   0  0  0  0  0  0  0  0  0  0  0  0
   -2.9983  -13.6641    3.4093 C   0  0  0  0  0  0  0  0  0  0  0  0
   -2.4781  -12.8355    4.6050 C   0  0  0  0  0  0  0  0  0  0  0  0
   -1.1411  -13.1985    5.0011 O   0  0  0  0  0  0  0  0  0  0  0  0
   -0.6667  -12.4231    6.0988 C   0  0  0  0  0  0  0  0  0  0  0  0
   -1.3171  -14.5533   -7.2416 H   0  0  0  0  0  0  0  0  0  0  0  0
   -0.1439  -13.0732   -5.7741 H   0  0  0  0  0  0  0  0  0  0  0  0
   -1.3360  -11.3916   -4.5619 H   0  0  0  0  0  0  0  0  0  0  0  0
   -4.8957  -12.6801   -6.2760 H   0  0  0  0  0  0  0  0  0  0  0  0
   -3.3160  -10.2426   -4.0583 H   0  0  0  0  0  0  0  0  0  0  0  0
   -5.7278  -11.4878   -5.1615 H   0  0  0  0  0  0  0  0  0  0  0  0
   -5.5837   -9.8678   -5.0141 H   0  0  0  0  0  0  0  0  0  0  0  0
   -7.6198   -9.8653   -3.1704 H   0  0  0  0  0  0  0  0  0  0  0  0
   -7.8425  -10.3423   -0.7176 H   0  0  0  0  0  0  0  0  0  0  0  0
   -6.0197  -11.0802    1.3138 H   0  0  0  0  0  0  0  0  0  0  0  0
   -4.8042  -12.0398    0.7959 H   0  0  0  0  0  0  0  0  0  0  0  0
   -6.3199  -13.6500    0.0952 H   0  0  0  0  0  0  0  0  0  0  0  0
   -6.7712  -12.6416    2.7217 H   0  0  0  0  0  0  0  0  0  0  0  0
   -7.4976  -15.3000    1.9371 H   0  0  0  0  0  0  0  0  0  0  0  0
   -8.5743  -14.0737    1.8775 H   0  0  0  0  0  0  0  0  0  0  0  0
   -7.7241  -13.9155    4.3665 H   0  0  0  0  0  0  0  0  0  0  0  0
  -10.0395  -15.4083    3.4853 H   0  0  0  0  0  0  0  0  0  0  0  0
  -10.0262  -13.8094    3.8170 H   0  0  0  0  0  0  0  0  0  0  0  0
  -10.9512  -15.0705    5.6398 H   0  0  0  0  0  0  0  0  0  0  0  0
   -9.6149  -14.2534    6.1016 H   0  0  0  0  0  0  0  0  0  0  0  0
   -9.7060  -17.0707    5.4620 H   0  0  0  0  0  0  0  0  0  0  0  0
   -9.4931  -16.4513    6.9579 H   0  0  0  0  0  0  0  0  0  0  0  0
   -7.4069  -17.1669    6.0036 H   0  0  0  0  0  0  0  0  0  0  0  0
   -7.3939  -15.5663    6.3277 H   0  0  0  0  0  0  0  0  0  0  0  0
   -6.4803  -15.9219    4.1740 H   0  0  0  0  0  0  0  0  0  0  0  0
   -7.8235  -16.7299    3.7161 H   0  0  0  0  0  0  0  0  0  0  0  0
   -4.5975  -12.2503    3.2810 H   0  0  0  0  0  0  0  0  0  0  0  0
   -2.3864  -13.5481    2.6269 H   0  0  0  0  0  0  0  0  0  0  0  0
   -3.0381  -14.6311    3.6610 H   0  0  0  0  0  0  0  0  0  0  0  0
   -3.0907  -12.9782    5.3824 H   0  0  0  0  0  0  0  0  0  0  0  0
   -2.4835  -11.8687    4.3494 H   0  0  0  0  0  0  0  0  0  0  0  0
    0.2612  -12.7119    6.3346 H   0  0  0  0  0  0  0  0  0  0  0  0
   -0.6604  -11.4557    5.8455 H   0  0  0  0  0  0  0  0  0  0  0  0
   -1.2679  -12.5576    6.8865 H   0  0  0  0  0  0  0  0  0  0  0  0
   -7.5730  -12.6701    0.4644 H   0  0  0  0  0  0  0  0  0  0  0  0
  1  2  2  0  0  0  0
  1  6  1  0  0  0  0
  1 32  1  0  0  0  0
  2  3  1  0  0  0  0
  2 33  1  0  0  0  0
  3  4  2  0  0  0  0
  3 34  1  0  0  0  0
  4  5  1  0  0  0  0
  4  8  1  0  0  0  0
  5  6  2  0  0  0  0
  5 35  1  0  0  0  0
  6  7  1  0  0  0  0
  8  9  1  0  0  0  0
  8 36  1  0  0  0  0
  9 10  1  0  0  0  0
  9 37  1  0  0  0  0
  9 38  1  0  0  0  0
 10 11  2  0  0  0  0
 10 14  1  0  0  0  0
 11 12  1  0  0  0  0
 11 39  1  0  0  0  0
 12 13  2  0  0  0  0
 12 40  1  0  0  0  0
 13 14  1  0  0  0  0
 13 15  1  0  0  0  0
 15 16  1  0  0  0  0
 15 41  1  0  0  0  0
 15 42  1  0  0  0  0
 16 17  1  0  0  0  0
 16 43  1  0  0  0  0
 16 66  1  0  0  0  0
 17 18  1  0  0  0  0
 17 19  1  0  0  0  0
 17 44  1  1  0  0  0
 18 26  2  0  0  0  0
 18 27  1  0  0  0  0
 19 20  1  0  0  0  0
 19 45  1  0  0  0  0
 19 46  1  0  0  0  0
 20 21  1  0  0  0  0
 20 25  1  0  0  0  0
 20 47  1  0  0  0  0
 21 22  1  0  0  0  0
 21 48  1  0  0  0  0
 21 49  1  0  0  0  0
 22 23  1  0  0  0  0
 22 50  1  0  0  0  0
 22 51  1  0  0  0  0
 23 24  1  0  0  0  0
 23 52  1  0  0  0  0
 23 53  1  0  0  0  0
 24 25  1  0  0  0  0
 24 54  1  0  0  0  0
 24 55  1  0  0  0  0
 25 56  1  0  0  0  0
 25 57  1  0  0  0  0
 27 28  1  0  0  0  0
 27 58  1  0  0  0  0
 28 29  1  0  0  0  0
 28 59  1  0  0  0  0
 28 60  1  0  0  0  0
 29 30  1  0  0  0  0
 29 61  1  0  0  0  0
 29 62  1  0  0  0  0
 30 31  1  0  0  0  0
 31 63  1  0  0  0  0
 31 64  1  0  0  0  0
 31 65  1  0  0  0  0
M  CHG  1  16   1
M  END
>  <BIOSOLVEIT.HYDE_ESTIMATED_AFFINITY_LOWER_BOUNDARY [nM]>
226638.084004

>  <BIOSOLVEIT.HYDE_ESTIMATED_AFFINITY_UPPER_BOUNDARY [nM]>
22517833.636164

>  <BIOSOLVEIT.HYDE_LIGAND_EFFICIENCY range: ++, +, 0, -, -->
--

>  <BIOSOLVEIT.HYDE_LIGAND_LIPOPHILIC_EFFICIENCY range: ++, +, 0, -, -->
--

>  <BIOSOLVEIT.INTER_CLASH range: red, yellow, green>
green

>  <BIOSOLVEIT.INTRA_CLASH range: red, yellow, green>
green

>  <BIOSOLVEIT.LOGP>
4.1786

>  <BIOSOLVEIT.MOLECULAR WEIGHT>
465.078

>  <BIOSOLVEIT.MOLECULE_CHECKSUM>
LTE1LjEwMzg7MC40ODcyMTk=

>  <BIOSOLVEIT.TORSION_QUALITY range: red, yellow, green, not rotatable>
red

>  <BIOSOLVEIT.TPSA>
66.97

$$$$
