Z52832973.****
 OpenBabel12172121453D
Hydescorer 1.1.2 b8048283
 37 38  0  0  0  0  0  0  0  0999 V2000
  -12.0129  -10.5463   -2.1307 C   0  0  0  0  0  0  0  0  0  0  0  0
  -11.4744  -11.4134   -3.0813 C   0  0  0  0  0  0  0  0  0  0  0  0
  -10.0955  -11.4590   -3.2690 C   0  0  0  0  0  0  0  0  0  0  0  0
   -9.2592  -10.6415   -2.5067 C   0  0  0  0  0  0  0  0  0  0  0  0
   -9.7992   -9.7876   -1.5403 C   0  0  0  0  0  0  0  0  0  0  0  0
  -11.1762   -9.7409   -1.3614 C   0  0  0  0  0  0  0  0  0  0  0  0
  -12.3878  -12.2860   -3.9150 C   0  0  0  0  0  0  0  0  0  0  0  0
   -7.8814  -10.7181   -2.7396 N   0  0  0  0  0  0  0  0  0  0  0  0
   -6.9611  -10.0314   -1.7794 C   0  0  0  0  0  0  0  0  0  0  0  0
   -6.1943  -11.0865   -0.9848 C   0  0  0  0  0  0  0  0  0  0  0  0
   -6.8561  -11.6435    0.0798 N   0  0  0  0  0  0  0  0  0  0  0  0
   -6.4116  -12.6411    1.0006 C   0  0  0  0  0  0  0  0  0  0  0  0
   -7.2700  -13.7224    1.2574 C   0  0  0  0  0  0  0  0  0  0  0  0
   -6.8750  -14.7139    2.1520 C   0  0  0  0  0  0  0  0  0  0  0  0
   -5.6317  -14.6389    2.7773 C   0  0  0  0  0  0  0  0  0  0  0  0
   -4.7567  -13.5760    2.5116 C   0  0  0  0  0  0  0  0  0  0  0  0
   -5.1597  -12.5755    1.6168 C   0  0  0  0  0  0  0  0  0  0  0  0
   -8.8191  -13.8456    0.4815 Cl  0  0  0  0  0  0  0  0  0  0  0  0
   -5.0564  -11.4114   -1.2579 O   0  0  0  0  0  0  0  0  0  0  0  0
   -3.3867  -13.4851    3.2029 C   0  0  0  0  0  0  0  0  0  0  0  0
   -3.4919  -13.8179    4.5046 F   0  0  0  0  0  0  0  0  0  0  0  0
   -2.5117  -14.3235    2.6176 F   0  0  0  0  0  0  0  0  0  0  0  0
   -2.9238  -12.2307    3.1116 F   0  0  0  0  0  0  0  0  0  0  0  0
  -13.0036  -10.5027   -2.0009 H   0  0  0  0  0  0  0  0  0  0  0  0
   -9.7040  -12.0775   -3.9502 H   0  0  0  0  0  0  0  0  0  0  0  0
   -9.1990   -9.2148   -0.9821 H   0  0  0  0  0  0  0  0  0  0  0  0
  -11.5685   -9.1262   -0.6771 H   0  0  0  0  0  0  0  0  0  0  0  0
  -11.8392  -12.8408   -4.5405 H   0  0  0  0  0  0  0  0  0  0  0  0
  -12.9162  -12.8854   -3.3138 H   0  0  0  0  0  0  0  0  0  0  0  0
  -13.0115  -11.7083   -4.4415 H   0  0  0  0  0  0  0  0  0  0  0  0
   -7.5212  -11.2185   -3.5269 H   0  0  0  0  0  0  0  0  0  0  0  0
   -7.4938   -9.4618   -1.1534 H   0  0  0  0  0  0  0  0  0  0  0  0
   -6.3162   -9.4581   -2.2848 H   0  0  0  0  0  0  0  0  0  0  0  0
   -7.7833  -11.3021    0.2335 H   0  0  0  0  0  0  0  0  0  0  0  0
   -7.4852  -15.4820    2.3462 H   0  0  0  0  0  0  0  0  0  0  0  0
   -5.3602  -15.3521    3.4235 H   0  0  0  0  0  0  0  0  0  0  0  0
   -4.5475  -11.8101    1.4182 H   0  0  0  0  0  0  0  0  0  0  0  0
  1  2  2  0  0  0  0
  1  6  1  0  0  0  0
  1 24  1  0  0  0  0
  2  3  1  0  0  0  0
  2  7  1  0  0  0  0
  3  4  2  0  0  0  0
  3 25  1  0  0  0  0
  4  5  1  0  0  0  0
  4  8  1  0  0  0  0
  5  6  2  0  0  0  0
  5 26  1  0  0  0  0
  6 27  1  0  0  0  0
  7 28  1  0  0  0  0
  7 29  1  0  0  0  0
  7 30  1  0  0  0  0
  8  9  1  0  0  0  0
  8 31  1  0  0  0  0
  9 10  1  0  0  0  0
  9 32  1  0  0  0  0
  9 33  1  0  0  0  0
 10 11  1  0  0  0  0
 10 19  2  0  0  0  0
 11 12  1  0  0  0  0
 11 34  1  0  0  0  0
 12 13  2  0  0  0  0
 12 17  1  0  0  0  0
 13 14  1  0  0  0  0
 13 18  1  0  0  0  0
 14 15  2  0  0  0  0
 14 35  1  0  0  0  0
 15 16  1  0  0  0  0
 15 36  1  0  0  0  0
 16 17  2  0  0  0  0
 16 20  1  0  0  0  0
 17 37  1  0  0  0  0
 20 21  1  0  0  0  0
 20 22  1  0  0  0  0
 20 23  1  0  0  0  0
M  END
>  <BIOSOLVEIT.HYDE_ESTIMATED_AFFINITY_LOWER_BOUNDARY [nM]>
20537305868.911388

>  <BIOSOLVEIT.HYDE_ESTIMATED_AFFINITY_UPPER_BOUNDARY [nM]>
2040502764238.451904

>  <BIOSOLVEIT.HYDE_LIGAND_EFFICIENCY range: ++, +, 0, -, -->
--

>  <BIOSOLVEIT.HYDE_LIGAND_LIPOPHILIC_EFFICIENCY range: ++, +, 0, -, -->
--

>  <BIOSOLVEIT.INTER_CLASH range: red, yellow, green>
green

>  <BIOSOLVEIT.INTRA_CLASH range: red, yellow, green>
green

>  <BIOSOLVEIT.LOGP>
4.71782

>  <BIOSOLVEIT.MOLECULAR WEIGHT>
342.747

>  <BIOSOLVEIT.MOLECULE_CHECKSUM>
MTMuMTkyOzA=

>  <BIOSOLVEIT.TORSION_QUALITY range: red, yellow, green, not rotatable>
green

>  <BIOSOLVEIT.TPSA>
41.13

$$$$
