PV-001794469959.****
 OpenBabel12172121453D
Hydescorer 1.1.2 b8048283
 40 42  0  0  0  0  0  0  0  0999 V2000
  -10.1275  -15.0043    5.4827 C   0  0  0  0  0  0  0  0  0  0  0  0
   -8.9261  -15.3988    4.8913 C   0  0  0  0  0  0  0  0  0  0  0  0
   -8.2034  -16.4689    5.4427 C   0  0  0  0  0  0  0  0  0  0  0  0
   -8.6941  -17.1045    6.5857 C   0  0  0  0  0  0  0  0  0  0  0  0
   -9.8929  -16.7056    7.1664 C   0  0  0  0  0  0  0  0  0  0  0  0
  -10.6098  -15.6536    6.6123 C   0  0  0  0  0  0  0  0  0  0  0  0
   -8.4581  -14.6511    3.6543 C   0  0  0  0  0  0  0  0  0  0  0  0
  -10.5435  -17.6036    8.7000 Br  0  0  0  0  0  0  0  0  0  0  0  0
   -6.8918  -16.9772    4.8438 C   0  0  0  0  0  0  0  0  0  0  0  0
   -5.7806  -15.9953    5.1842 C   0  0  0  0  0  0  0  0  0  0  0  0
   -5.0461  -15.3567    4.2311 N   0  0  0  0  0  0  0  0  0  0  0  0
   -5.4856  -15.7244    6.3270 O   0  0  0  0  0  0  0  0  0  0  0  0
   -4.0080  -14.4401    4.4605 C   0  0  0  0  0  0  0  0  0  0  0  0
   -2.7646  -14.8919    4.8970 C   0  0  0  0  0  0  0  0  0  0  0  0
   -1.7623  -13.9464    5.1087 C   0  0  0  0  0  0  0  0  0  0  0  0
   -1.9843  -12.5789    4.9109 C   0  0  0  0  0  0  0  0  0  0  0  0
   -3.2391  -12.1535    4.4783 C   0  0  0  0  0  0  0  0  0  0  0  0
   -4.2548  -13.0814    4.2525 C   0  0  0  0  0  0  0  0  0  0  0  0
   -0.4687  -14.3955    5.5499 N   0  0  0  0  0  0  0  0  0  0  0  0
    0.7069  -14.1982    4.9504 C   0  0  0  0  0  0  0  0  0  0  0  0
    1.6201  -14.7626    5.6498 N   0  0  0  0  0  0  0  0  0  0  0  0
    0.9871  -15.3323    6.7119 N   0  0  0  0  0  0  0  0  0  0  0  0
   -0.2923  -15.1102    6.6484 N   0  0  0  0  0  0  0  0  0  0  0  0
    0.8871  -13.4347    3.6551 C   0  0  0  0  0  0  0  0  0  0  0  0
  -10.6467  -14.2457    5.0890 H   0  0  0  0  0  0  0  0  0  0  0  0
   -8.1759  -17.8570    6.9921 H   0  0  0  0  0  0  0  0  0  0  0  0
  -11.4727  -15.3635    7.0260 H   0  0  0  0  0  0  0  0  0  0  0  0
   -7.5908  -15.0368    3.3399 H   0  0  0  0  0  0  0  0  0  0  0  0
   -9.1438  -14.7398    2.9318 H   0  0  0  0  0  0  0  0  0  0  0  0
   -8.3319  -13.6844    3.8771 H   0  0  0  0  0  0  0  0  0  0  0  0
   -6.9825  -17.0503    3.8506 H   0  0  0  0  0  0  0  0  0  0  0  0
   -6.6744  -17.8755    5.2257 H   0  0  0  0  0  0  0  0  0  0  0  0
   -5.2676  -15.5602    3.2774 H   0  0  0  0  0  0  0  0  0  0  0  0
   -2.5961  -15.8650    5.0538 H   0  0  0  0  0  0  0  0  0  0  0  0
   -1.2536  -11.9168    5.0774 H   0  0  0  0  0  0  0  0  0  0  0  0
   -3.4114  -11.1798    4.3295 H   0  0  0  0  0  0  0  0  0  0  0  0
   -5.1553  -12.7756    3.9431 H   0  0  0  0  0  0  0  0  0  0  0  0
    1.8559  -13.4223    3.4074 H   0  0  0  0  0  0  0  0  0  0  0  0
    0.3633  -13.8809    2.9294 H   0  0  0  0  0  0  0  0  0  0  0  0
    0.5612  -12.4966    3.7730 H   0  0  0  0  0  0  0  0  0  0  0  0
  1  2  2  0  0  0  0
  1  6  1  0  0  0  0
  1 25  1  0  0  0  0
  2  3  1  0  0  0  0
  2  7  1  0  0  0  0
  3  4  2  0  0  0  0
  3  9  1  0  0  0  0
  4  5  1  0  0  0  0
  4 26  1  0  0  0  0
  5  6  2  0  0  0  0
  5  8  1  0  0  0  0
  6 27  1  0  0  0  0
  7 28  1  0  0  0  0
  7 29  1  0  0  0  0
  7 30  1  0  0  0  0
  9 10  1  0  0  0  0
  9 31  1  0  0  0  0
  9 32  1  0  0  0  0
 10 11  1  0  0  0  0
 10 12  2  0  0  0  0
 11 13  1  0  0  0  0
 11 33  1  0  0  0  0
 13 14  2  0  0  0  0
 13 18  1  0  0  0  0
 14 15  1  0  0  0  0
 14 34  1  0  0  0  0
 15 16  2  0  0  0  0
 15 19  1  0  0  0  0
 16 17  1  0  0  0  0
 16 35  1  0  0  0  0
 17 18  2  0  0  0  0
 17 36  1  0  0  0  0
 18 37  1  0  0  0  0
 19 20  1  0  0  0  0
 19 23  1  0  0  0  0
 20 21  2  0  0  0  0
 20 24  1  0  0  0  0
 21 22  1  0  0  0  0
 22 23  2  0  0  0  0
 24 38  1  0  0  0  0
 24 39  1  0  0  0  0
 24 40  1  0  0  0  0
M  END
>  <BIOSOLVEIT.HYDE_ESTIMATED_AFFINITY_LOWER_BOUNDARY [nM]>
2264994322.845661

>  <BIOSOLVEIT.HYDE_ESTIMATED_AFFINITY_UPPER_BOUNDARY [nM]>
225040577680.988586

>  <BIOSOLVEIT.HYDE_LIGAND_EFFICIENCY range: ++, +, 0, -, -->
--

>  <BIOSOLVEIT.HYDE_LIGAND_LIPOPHILIC_EFFICIENCY range: ++, +, 0, -, -->
--

>  <BIOSOLVEIT.INTER_CLASH range: red, yellow, green>
green

>  <BIOSOLVEIT.INTRA_CLASH range: red, yellow, green>
green

>  <BIOSOLVEIT.LOGP>
3.22284

>  <BIOSOLVEIT.MOLECULAR WEIGHT>
386.251

>  <BIOSOLVEIT.MOLECULE_CHECKSUM>
Ny43MjY3Mzsw

>  <BIOSOLVEIT.TORSION_QUALITY range: red, yellow, green, not rotatable>
yellow

>  <BIOSOLVEIT.TPSA>
72.7

$$$$
