Z1544592819.****
 OpenBabel12172121453D
Hydescorer 1.1.2 b8048283
 45 47  0  0  0  0  0  0  0  0999 V2000
   -3.8343  -16.6413    6.2952 C   0  0  0  0  0  0  0  0  0  0  0  0
   -2.7104  -16.1088    5.6663 C   0  0  0  0  0  0  0  0  0  0  0  0
   -2.8746  -15.0629    4.7531 C   0  0  0  0  0  0  0  0  0  0  0  0
   -4.1300  -14.5375    4.4564 C   0  0  0  0  0  0  0  0  0  0  0  0
   -5.2359  -15.0919    5.0944 C   0  0  0  0  0  0  0  0  0  0  0  0
   -5.1003  -16.1345    6.0119 C   0  0  0  0  0  0  0  0  0  0  0  0
   -1.7215  -14.5201    4.1026 N   0  0  0  0  0  0  0  0  0  0  0  0
   -1.1145  -15.0048    3.0028 C   0  0  0  0  0  0  0  0  0  0  0  0
   -0.0955  -14.2561    2.6985 N   0  0  0  0  0  0  0  0  0  0  0  0
   -0.0462  -13.2459    3.6415 N   0  0  0  0  0  0  0  0  0  0  0  0
   -1.0225  -13.4230    4.4638 C   0  0  0  0  0  0  0  0  0  0  0  0
   -1.6736  -16.4301    2.1683 S   0  0  0  0  0  0  0  0  0  0  0  0
   -1.3776  -12.5674    5.6606 C   0  0  0  0  0  0  0  0  0  0  0  0
   -6.5139  -14.5895    4.8075 N   0  0  0  0  0  0  0  0  0  0  0  0
   -7.4422  -15.2005    4.0221 C   0  0  0  0  0  0  0  0  0  0  0  0
   -7.1041  -16.2661    3.5535 O   0  0  0  0  0  0  0  0  0  0  0  0
   -8.8092  -14.5880    3.7597 C   0  0  0  0  0  0  0  0  0  0  0  0
   -9.8155  -15.2022    4.7359 C   0  0  0  0  0  0  0  0  0  0  0  0
  -11.1725  -15.3571    4.4142 C   0  0  0  0  0  0  0  0  0  0  0  0
  -12.0341  -15.9376    5.3437 C   0  0  0  0  0  0  0  0  0  0  0  0
  -11.5663  -16.3535    6.5840 C   0  0  0  0  0  0  0  0  0  0  0  0
  -10.2272  -16.1895    6.9160 C   0  0  0  0  0  0  0  0  0  0  0  0
   -9.3627  -15.6068    5.9946 C   0  0  0  0  0  0  0  0  0  0  0  0
  -11.7458  -14.9124    3.0805 C   0  0  0  0  0  0  0  0  0  0  0  0
   -9.7146  -16.6211    8.2727 C   0  0  0  0  0  0  0  0  0  0  0  0
   -3.7315  -17.3890    6.9513 H   0  0  0  0  0  0  0  0  0  0  0  0
   -1.7993  -16.4697    5.8654 H   0  0  0  0  0  0  0  0  0  0  0  0
   -4.2336  -13.7855    3.8054 H   0  0  0  0  0  0  0  0  0  0  0  0
   -5.9072  -16.5154    6.4632 H   0  0  0  0  0  0  0  0  0  0  0  0
   -0.7261  -11.8124    5.7358 H   0  0  0  0  0  0  0  0  0  0  0  0
   -2.3008  -12.2006    5.5461 H   0  0  0  0  0  0  0  0  0  0  0  0
   -1.3405  -13.1236    6.4909 H   0  0  0  0  0  0  0  0  0  0  0  0
   -6.7631  -13.7101    5.2134 H   0  0  0  0  0  0  0  0  0  0  0  0
   -9.0903  -14.7817    2.8199 H   0  0  0  0  0  0  0  0  0  0  0  0
   -8.7670  -13.5984    3.8978 H   0  0  0  0  0  0  0  0  0  0  0  0
  -13.0004  -16.0560    5.1150 H   0  0  0  0  0  0  0  0  0  0  0  0
  -12.1950  -16.7720    7.2394 H   0  0  0  0  0  0  0  0  0  0  0  0
   -8.4015  -15.4754    6.2370 H   0  0  0  0  0  0  0  0  0  0  0  0
  -12.7253  -15.1123    3.0554 H   0  0  0  0  0  0  0  0  0  0  0  0
  -11.6033  -13.9291    2.9677 H   0  0  0  0  0  0  0  0  0  0  0  0
  -11.2864  -15.4028    2.3400 H   0  0  0  0  0  0  0  0  0  0  0  0
   -8.7352  -16.4288    8.3357 H   0  0  0  0  0  0  0  0  0  0  0  0
  -10.1997  -16.1179    8.9879 H   0  0  0  0  0  0  0  0  0  0  0  0
   -9.8700  -17.6018    8.3913 H   0  0  0  0  0  0  0  0  0  0  0  0
    0.5315  -14.3860    1.9304 H   0  0  0  0  0  0  0  0  0  0  0  0
  1  2  2  0  0  0  0
  1  6  1  0  0  0  0
  1 26  1  0  0  0  0
  2  3  1  0  0  0  0
  2 27  1  0  0  0  0
  3  4  2  0  0  0  0
  3  7  1  0  0  0  0
  4  5  1  0  0  0  0
  4 28  1  0  0  0  0
  5  6  2  0  0  0  0
  5 14  1  0  0  0  0
  6 29  1  0  0  0  0
  7  8  1  0  0  0  0
  7 11  1  0  0  0  0
  8  9  1  0  0  0  0
  8 12  2  0  0  0  0
  9 10  1  0  0  0  0
  9 45  1  0  0  0  0
 10 11  2  0  0  0  0
 11 13  1  0  0  0  0
 13 30  1  0  0  0  0
 13 31  1  0  0  0  0
 13 32  1  0  0  0  0
 14 15  1  0  0  0  0
 14 33  1  0  0  0  0
 15 16  2  0  0  0  0
 15 17  1  0  0  0  0
 17 18  1  0  0  0  0
 17 34  1  0  0  0  0
 17 35  1  0  0  0  0
 18 19  2  0  0  0  0
 18 23  1  0  0  0  0
 19 20  1  0  0  0  0
 19 24  1  0  0  0  0
 20 21  2  0  0  0  0
 20 36  1  0  0  0  0
 21 22  1  0  0  0  0
 21 37  1  0  0  0  0
 22 23  2  0  0  0  0
 22 25  1  0  0  0  0
 23 38  1  0  0  0  0
 24 39  1  0  0  0  0
 24 40  1  0  0  0  0
 24 41  1  0  0  0  0
 25 42  1  0  0  0  0
 25 43  1  0  0  0  0
 25 44  1  0  0  0  0
M  END
>  <BIOSOLVEIT.HYDE_ESTIMATED_AFFINITY_LOWER_BOUNDARY [nM]>
243311669.833194

>  <BIOSOLVEIT.HYDE_ESTIMATED_AFFINITY_UPPER_BOUNDARY [nM]>
24174452970.370197

>  <BIOSOLVEIT.HYDE_LIGAND_EFFICIENCY range: ++, +, 0, -, -->
--

>  <BIOSOLVEIT.HYDE_LIGAND_LIPOPHILIC_EFFICIENCY range: ++, +, 0, -, -->
--

>  <BIOSOLVEIT.INTER_CLASH range: red, yellow, green>
green

>  <BIOSOLVEIT.INTRA_CLASH range: red, yellow, green>
green

>  <BIOSOLVEIT.LOGP>
3.51254

>  <BIOSOLVEIT.MOLECULAR WEIGHT>
352.459

>  <BIOSOLVEIT.MOLECULE_CHECKSUM>
Mi4xOTYyMTsw

>  <BIOSOLVEIT.TORSION_QUALITY range: red, yellow, green, not rotatable>
red

>  <BIOSOLVEIT.TPSA>
56.73

$$$$
