Z854669466.****
 OpenBabel12172121453D
Hydescorer 1.1.2 b8048283
 39 41  0  0  0  0  0  0  0  0999 V2000
   -4.3604  -15.6827    5.6504 C   0  0  0  0  0  0  0  0  0  0  0  0
   -5.4996  -16.4729    5.7849 C   0  0  0  0  0  0  0  0  0  0  0  0
   -6.6558  -16.1836    5.0611 C   0  0  0  0  0  0  0  0  0  0  0  0
   -6.6476  -15.0796    4.1925 C   0  0  0  0  0  0  0  0  0  0  0  0
   -5.5124  -14.2795    4.0550 C   0  0  0  0  0  0  0  0  0  0  0  0
   -4.3686  -14.5878    4.7853 C   0  0  0  0  0  0  0  0  0  0  0  0
   -2.9501  -13.6051    4.6311 Cl  0  0  0  0  0  0  0  0  0  0  0  0
   -7.8824  -17.0650    5.2240 C   0  0  0  0  0  0  0  0  0  0  0  0
   -7.8382  -14.7720    3.4862 N   0  0  0  0  0  0  0  0  0  0  0  0
   -8.9435  -14.1166    3.9664 C   0  0  0  0  0  0  0  0  0  0  0  0
  -10.0879  -13.9140    3.0016 C   0  0  0  0  0  0  0  0  0  0  0  0
   -8.9796  -13.7057    5.1046 O   0  0  0  0  0  0  0  0  0  0  0  0
  -11.4099  -14.0710    3.7901 C   0  0  0  0  0  0  0  0  0  0  0  0
  -12.5880  -13.6332    2.8887 C   0  0  0  0  0  0  0  0  0  0  0  0
  -11.5854  -15.5830    4.0507 C   0  0  0  0  0  0  0  0  0  0  0  0
  -12.8529  -15.9911    4.7444 C   0  0  0  0  0  0  0  0  0  0  0  0
  -12.6670  -16.2731    3.2716 C   0  0  0  0  0  0  0  0  0  0  0  0
  -13.2421  -12.3270    3.2379 C   0  0  0  0  0  0  0  0  0  0  0  0
  -12.3525  -12.4299    2.0207 C   0  0  0  0  0  0  0  0  0  0  0  0
   -3.5366  -15.9001    6.1739 H   0  0  0  0  0  0  0  0  0  0  0  0
   -5.4882  -17.2558    6.4069 H   0  0  0  0  0  0  0  0  0  0  0  0
   -5.5208  -13.4927    3.4379 H   0  0  0  0  0  0  0  0  0  0  0  0
   -8.6184  -16.7231    4.6397 H   0  0  0  0  0  0  0  0  0  0  0  0
   -7.6563  -18.0029    4.9609 H   0  0  0  0  0  0  0  0  0  0  0  0
   -8.1799  -17.0490    6.1786 H   0  0  0  0  0  0  0  0  0  0  0  0
   -7.8763  -15.0657    2.5310 H   0  0  0  0  0  0  0  0  0  0  0  0
  -10.0434  -14.5980    2.2735 H   0  0  0  0  0  0  0  0  0  0  0  0
  -10.0374  -12.9985    2.6024 H   0  0  0  0  0  0  0  0  0  0  0  0
  -11.3903  -13.5522    4.6447 H   0  0  0  0  0  0  0  0  0  0  0  0
  -13.1748  -14.3545    2.5208 H   0  0  0  0  0  0  0  0  0  0  0  0
  -10.7612  -16.1109    4.2556 H   0  0  0  0  0  0  0  0  0  0  0  0
  -13.5067  -15.2955    5.0423 H   0  0  0  0  0  0  0  0  0  0  0  0
  -12.8430  -16.7433    5.4032 H   0  0  0  0  0  0  0  0  0  0  0  0
  -12.5341  -17.2122    2.9547 H   0  0  0  0  0  0  0  0  0  0  0  0
  -13.1978  -15.7645    2.5937 H   0  0  0  0  0  0  0  0  0  0  0  0
  -12.9364  -11.8127    4.0392 H   0  0  0  0  0  0  0  0  0  0  0  0
  -14.2299  -12.2168    3.1280 H   0  0  0  0  0  0  0  0  0  0  0  0
  -12.7509  -12.3879    1.1046 H   0  0  0  0  0  0  0  0  0  0  0  0
  -11.4575  -11.9838    2.0158 H   0  0  0  0  0  0  0  0  0  0  0  0
  1  2  2  0  0  0  0
  1  6  1  0  0  0  0
  1 20  1  0  0  0  0
  2  3  1  0  0  0  0
  2 21  1  0  0  0  0
  3  4  2  0  0  0  0
  3  8  1  0  0  0  0
  4  5  1  0  0  0  0
  4  9  1  0  0  0  0
  5  6  2  0  0  0  0
  5 22  1  0  0  0  0
  6  7  1  0  0  0  0
  8 23  1  0  0  0  0
  8 24  1  0  0  0  0
  8 25  1  0  0  0  0
  9 10  1  0  0  0  0
  9 26  1  0  0  0  0
 10 11  1  0  0  0  0
 10 12  2  0  0  0  0
 11 13  1  0  0  0  0
 11 27  1  0  0  0  0
 11 28  1  0  0  0  0
 13 14  1  0  0  0  0
 13 15  1  0  0  0  0
 13 29  1  0  0  0  0
 14 18  1  0  0  0  0
 14 19  1  0  0  0  0
 14 30  1  0  0  0  0
 15 16  1  0  0  0  0
 15 17  1  0  0  0  0
 15 31  1  0  0  0  0
 16 17  1  0  0  0  0
 16 32  1  0  0  0  0
 16 33  1  0  0  0  0
 17 34  1  0  0  0  0
 17 35  1  0  0  0  0
 18 19  1  0  0  0  0
 18 36  1  0  0  0  0
 18 37  1  0  0  0  0
 19 38  1  0  0  0  0
 19 39  1  0  0  0  0
M  END
>  <BIOSOLVEIT.HYDE_ESTIMATED_AFFINITY_LOWER_BOUNDARY [nM]>
133133102.544049

>  <BIOSOLVEIT.HYDE_ESTIMATED_AFFINITY_UPPER_BOUNDARY [nM]>
13227560882.949146

>  <BIOSOLVEIT.HYDE_LIGAND_EFFICIENCY range: ++, +, 0, -, -->
--

>  <BIOSOLVEIT.HYDE_LIGAND_LIPOPHILIC_EFFICIENCY range: ++, +, 0, -, -->
--

>  <BIOSOLVEIT.INTER_CLASH range: red, yellow, green>
green

>  <BIOSOLVEIT.INTRA_CLASH range: red, yellow, green>
green

>  <BIOSOLVEIT.LOGP>
4.41322

>  <BIOSOLVEIT.MOLECULAR WEIGHT>
277.793

>  <BIOSOLVEIT.MOLECULE_CHECKSUM>
MC43MDE0MTc7MA==

>  <BIOSOLVEIT.TORSION_QUALITY range: red, yellow, green, not rotatable>
yellow

>  <BIOSOLVEIT.TPSA>
29.1

$$$$
