PV-000117881128.****
 OpenBabel12172121453D
Hydescorer 1.1.2 b8048283
 45 47  0  0  0  0  0  0  0  0999 V2000
   -7.9240  -10.5262   -2.3671 C   0  0  0  0  0  0  0  0  0  0  0  0
   -7.6533  -11.1325   -1.1458 C   0  0  0  0  0  0  0  0  0  0  0  0
   -6.3445  -11.5033   -0.8026 C   0  0  0  0  0  0  0  0  0  0  0  0
   -5.3143  -11.2594   -1.7278 C   0  0  0  0  0  0  0  0  0  0  0  0
   -5.5892  -10.6512   -2.9489 C   0  0  0  0  0  0  0  0  0  0  0  0
   -6.8927  -10.2839   -3.2682 C   0  0  0  0  0  0  0  0  0  0  0  0
   -6.0841  -12.1341    0.4972 C   0  0  0  0  0  0  0  0  0  0  0  0
   -6.8190  -13.2275    0.8860 N   0  0  0  0  0  0  0  0  0  0  0  0
   -5.2283  -11.7423    1.2779 O   0  0  0  0  0  0  0  0  0  0  0  0
   -6.5985  -13.9038    2.1871 C   0  0  1  0  0  0  0  0  0  0  0  0
   -7.3486  -13.1787    3.3216 C   0  0  0  0  0  0  0  0  0  0  0  0
   -8.7317  -13.5185    2.9764 N   0  3  1  0  0  0  0  0  0  0  0  0
   -8.7185  -14.9711    2.7616 C   0  0  0  0  0  0  0  0  0  0  0  0
   -7.3428  -15.2416    2.1209 C   0  0  0  0  0  0  0  0  0  0  0  0
   -9.6275  -13.1483    4.0862 C   0  0  0  0  0  0  0  0  0  0  0  0
  -11.0526  -13.5144    3.6222 C   0  0  0  0  0  0  0  0  0  0  0  0
  -11.8526  -14.2591    4.6984 C   0  0  0  0  0  0  0  0  0  0  0  0
  -13.3127  -14.0098    4.3143 C   0  0  0  0  0  0  0  0  0  0  0  0
  -13.3180  -12.7394    3.4565 C   0  0  0  0  0  0  0  0  0  0  0  0
  -11.8750  -12.2367    3.4484 C   0  0  0  0  0  0  0  0  0  0  0  0
   -8.8610  -10.2641   -2.5979 H   0  0  0  0  0  0  0  0  0  0  0  0
   -8.4003  -11.3064   -0.5042 H   0  0  0  0  0  0  0  0  0  0  0  0
   -4.3761  -11.5252   -1.5065 H   0  0  0  0  0  0  0  0  0  0  0  0
   -4.8486  -10.4779   -3.5980 H   0  0  0  0  0  0  0  0  0  0  0  0
   -7.0879   -9.8456   -4.1456 H   0  0  0  0  0  0  0  0  0  0  0  0
   -7.5255  -13.5789    0.2717 H   0  0  0  0  0  0  0  0  0  0  0  0
   -5.6268  -14.0218    2.3917 H   0  0  0  0  0  0  0  0  0  0  0  0
   -7.1926  -12.1913    3.2967 H   0  0  0  0  0  0  0  0  0  0  0  0
   -7.0933  -13.5340    4.2207 H   0  0  0  0  0  0  0  0  0  0  0  0
   -9.4572  -15.2460    2.1463 H   0  0  0  0  0  0  0  0  0  0  0  0
   -8.8084  -15.4595    3.6295 H   0  0  0  0  0  0  0  0  0  0  0  0
   -6.8488  -15.9435    2.6342 H   0  0  0  0  0  0  0  0  0  0  0  0
   -7.4500  -15.5366    1.1714 H   0  0  0  0  0  0  0  0  0  0  0  0
   -9.5636  -12.1678    4.2721 H   0  0  0  0  0  0  0  0  0  0  0  0
   -9.3884  -13.6602    4.9113 H   0  0  0  0  0  0  0  0  0  0  0  0
  -11.0261  -14.0391    2.7713 H   0  0  0  0  0  0  0  0  0  0  0  0
  -11.6561  -13.8897    5.6066 H   0  0  0  0  0  0  0  0  0  0  0  0
  -11.6433  -15.2369    4.6839 H   0  0  0  0  0  0  0  0  0  0  0  0
  -13.8691  -13.8766    5.1345 H   0  0  0  0  0  0  0  0  0  0  0  0
  -13.6704  -14.7831    3.7908 H   0  0  0  0  0  0  0  0  0  0  0  0
  -13.9240  -12.0517    3.8563 H   0  0  0  0  0  0  0  0  0  0  0  0
  -13.6191  -12.9487    2.5261 H   0  0  0  0  0  0  0  0  0  0  0  0
  -11.6578  -11.7866    2.5823 H   0  0  0  0  0  0  0  0  0  0  0  0
  -11.7132  -11.6017    4.2038 H   0  0  0  0  0  0  0  0  0  0  0  0
   -9.0054  -13.0468    2.1383 H   0  0  0  0  0  0  0  0  0  0  0  0
  1  2  2  0  0  0  0
  1  6  1  0  0  0  0
  1 21  1  0  0  0  0
  2  3  1  0  0  0  0
  2 22  1  0  0  0  0
  3  4  2  0  0  0  0
  3  7  1  0  0  0  0
  4  5  1  0  0  0  0
  4 23  1  0  0  0  0
  5  6  2  0  0  0  0
  5 24  1  0  0  0  0
  6 25  1  0  0  0  0
  7  8  1  0  0  0  0
  7  9  2  0  0  0  0
  8 10  1  0  0  0  0
  8 26  1  0  0  0  0
 10 11  1  0  0  0  0
 10 14  1  0  0  0  0
 10 27  1  1  0  0  0
 11 12  1  0  0  0  0
 11 28  1  0  0  0  0
 11 29  1  0  0  0  0
 12 13  1  0  0  0  0
 12 15  1  0  0  0  0
 12 45  1  6  0  0  0
 13 14  1  0  0  0  0
 13 30  1  0  0  0  0
 13 31  1  0  0  0  0
 14 32  1  0  0  0  0
 14 33  1  0  0  0  0
 15 16  1  0  0  0  0
 15 34  1  0  0  0  0
 15 35  1  0  0  0  0
 16 17  1  0  0  0  0
 16 20  1  0  0  0  0
 16 36  1  0  0  0  0
 17 18  1  0  0  0  0
 17 37  1  0  0  0  0
 17 38  1  0  0  0  0
 18 19  1  0  0  0  0
 18 39  1  0  0  0  0
 18 40  1  0  0  0  0
 19 20  1  0  0  0  0
 19 41  1  0  0  0  0
 19 42  1  0  0  0  0
 20 43  1  0  0  0  0
 20 44  1  0  0  0  0
M  CHG  1  12   1
M  END
>  <BIOSOLVEIT.HYDE_ESTIMATED_AFFINITY_LOWER_BOUNDARY [nM]>
11523974017.766491

>  <BIOSOLVEIT.HYDE_ESTIMATED_AFFINITY_UPPER_BOUNDARY [nM]>
1144974953791.788574

>  <BIOSOLVEIT.HYDE_LIGAND_EFFICIENCY range: ++, +, 0, -, -->
--

>  <BIOSOLVEIT.HYDE_LIGAND_LIPOPHILIC_EFFICIENCY range: ++, +, 0, -, -->
--

>  <BIOSOLVEIT.INTER_CLASH range: red, yellow, green>
green

>  <BIOSOLVEIT.INTRA_CLASH range: red, yellow, green>
green

>  <BIOSOLVEIT.LOGP>
1.2638

>  <BIOSOLVEIT.MOLECULAR WEIGHT>
273.398

>  <BIOSOLVEIT.MOLECULE_CHECKSUM>
MTEuNzU5Njsw

>  <BIOSOLVEIT.TORSION_QUALITY range: red, yellow, green, not rotatable>
yellow

>  <BIOSOLVEIT.TPSA>
33.54

$$$$
