Z1551029475.****
 OpenBabel12172121453D
Hydescorer 1.1.2 b8048283
 39 41  0  0  0  0  0  0  0  0999 V2000
   -1.3906  -14.0290   -7.0439 C   0  0  0  0  0  0  0  0  0  0  0  0
   -0.8954  -15.2775   -7.4187 C   0  0  0  0  0  0  0  0  0  0  0  0
   -1.6779  -16.1448   -8.1808 C   0  0  0  0  0  0  0  0  0  0  0  0
   -2.9643  -15.7463   -8.5583 C   0  0  0  0  0  0  0  0  0  0  0  0
   -3.4880  -14.5182   -8.1643 C   0  0  0  0  0  0  0  0  0  0  0  0
   -2.6800  -13.6572   -7.4287 C   0  0  0  0  0  0  0  0  0  0  0  0
   -3.1757  -12.3980   -7.0469 N   0  0  0  0  0  0  0  0  0  0  0  0
   -3.9051  -12.1150   -5.9298 C   0  0  0  0  0  0  0  0  0  0  0  0
   -4.1244  -13.0613   -5.2078 O   0  0  0  0  0  0  0  0  0  0  0  0
   -4.4007  -10.7149   -5.5980 C   0  0  0  0  0  0  0  0  0  0  0  0
   -3.7635  -16.5959   -9.3990 N   0  0  0  0  0  0  0  0  0  0  0  0
   -4.8175  -17.3511   -9.0259 C   0  0  0  0  0  0  0  0  0  0  0  0
   -5.3460  -17.9150  -10.0721 N   0  0  0  0  0  0  0  0  0  0  0  0
   -4.5990  -17.5175  -11.1631 N   0  0  0  0  0  0  0  0  0  0  0  0
   -3.6636  -16.7378  -10.7420 C   0  0  0  0  0  0  0  0  0  0  0  0
   -2.6001  -16.0743  -11.5915 C   0  0  0  0  0  0  0  0  0  0  0  0
   -5.3384  -17.5119   -7.3691 S   0  0  0  0  0  0  0  0  0  0  0  0
   -5.2179  -10.7634   -4.3080 C   0  0  0  0  0  0  0  0  0  0  0  0
   -4.5999  -10.9626   -3.0708 C   0  0  0  0  0  0  0  0  0  0  0  0
   -5.3032  -10.9526   -1.8733 C   0  0  0  0  0  0  0  0  0  0  0  0
   -6.6795  -10.7581   -1.9043 C   0  0  0  0  0  0  0  0  0  0  0  0
   -7.3316  -10.5886   -3.1260 C   0  0  0  0  0  0  0  0  0  0  0  0
   -6.6069  -10.5984   -4.3205 C   0  0  0  0  0  0  0  0  0  0  0  0
   -3.2622  -11.1634   -3.0116 F   0  0  0  0  0  0  0  0  0  0  0  0
   -9.2043  -10.3335   -3.1648 Br  0  0  0  0  0  0  0  0  0  0  0  0
   -0.8263  -13.4047   -6.5036 H   0  0  0  0  0  0  0  0  0  0  0  0
    0.0248  -15.5522   -7.1398 H   0  0  0  0  0  0  0  0  0  0  0  0
   -1.3239  -17.0394   -8.4535 H   0  0  0  0  0  0  0  0  0  0  0  0
   -4.4239  -14.2607   -8.4045 H   0  0  0  0  0  0  0  0  0  0  0  0
   -2.9728  -11.6318   -7.6568 H   0  0  0  0  0  0  0  0  0  0  0  0
   -4.9741  -10.3775   -6.3446 H   0  0  0  0  0  0  0  0  0  0  0  0
   -3.6187  -10.1036   -5.4757 H   0  0  0  0  0  0  0  0  0  0  0  0
   -2.7321  -16.3286  -12.5496 H   0  0  0  0  0  0  0  0  0  0  0  0
   -2.6699  -15.0812  -11.4976 H   0  0  0  0  0  0  0  0  0  0  0  0
   -1.6958  -16.3750  -11.2884 H   0  0  0  0  0  0  0  0  0  0  0  0
   -4.8276  -11.0833   -1.0034 H   0  0  0  0  0  0  0  0  0  0  0  0
   -7.2016  -10.7397   -1.0516 H   0  0  0  0  0  0  0  0  0  0  0  0
   -7.0851  -10.4864   -5.1916 H   0  0  0  0  0  0  0  0  0  0  0  0
   -6.1414  -18.5209  -10.0840 H   0  0  0  0  0  0  0  0  0  0  0  0
  1  2  2  0  0  0  0
  1  6  1  0  0  0  0
  1 26  1  0  0  0  0
  2  3  1  0  0  0  0
  2 27  1  0  0  0  0
  3  4  2  0  0  0  0
  3 28  1  0  0  0  0
  4  5  1  0  0  0  0
  4 11  1  0  0  0  0
  5  6  2  0  0  0  0
  5 29  1  0  0  0  0
  6  7  1  0  0  0  0
  7  8  1  0  0  0  0
  7 30  1  0  0  0  0
  8  9  2  0  0  0  0
  8 10  1  0  0  0  0
 10 18  1  0  0  0  0
 10 31  1  0  0  0  0
 10 32  1  0  0  0  0
 11 12  1  0  0  0  0
 11 15  1  0  0  0  0
 12 13  1  0  0  0  0
 12 17  2  0  0  0  0
 13 14  1  0  0  0  0
 13 39  1  0  0  0  0
 14 15  2  0  0  0  0
 15 16  1  0  0  0  0
 16 33  1  0  0  0  0
 16 34  1  0  0  0  0
 16 35  1  0  0  0  0
 18 19  2  0  0  0  0
 18 23  1  0  0  0  0
 19 20  1  0  0  0  0
 19 24  1  0  0  0  0
 20 21  2  0  0  0  0
 20 36  1  0  0  0  0
 21 22  1  0  0  0  0
 21 37  1  0  0  0  0
 22 23  2  0  0  0  0
 22 25  1  0  0  0  0
 23 38  1  0  0  0  0
M  END
>  <BIOSOLVEIT.HYDE_ESTIMATED_AFFINITY_LOWER_BOUNDARY [nM]>
234645.624450

>  <BIOSOLVEIT.HYDE_ESTIMATED_AFFINITY_UPPER_BOUNDARY [nM]>
23313430.123859

>  <BIOSOLVEIT.HYDE_LIGAND_EFFICIENCY range: ++, +, 0, -, -->
--

>  <BIOSOLVEIT.HYDE_LIGAND_LIPOPHILIC_EFFICIENCY range: ++, +, 0, -, -->
--

>  <BIOSOLVEIT.INTER_CLASH range: red, yellow, green>
green

>  <BIOSOLVEIT.INTRA_CLASH range: red, yellow, green>
green

>  <BIOSOLVEIT.LOGP>
3.7973

>  <BIOSOLVEIT.MOLECULAR WEIGHT>
421.292

>  <BIOSOLVEIT.MOLECULE_CHECKSUM>
LTE1LjAxNzc7MC42MDA3MDk=

>  <BIOSOLVEIT.TORSION_QUALITY range: red, yellow, green, not rotatable>
yellow

>  <BIOSOLVEIT.TPSA>
56.73

$$$$
