Z1551029475.****
 OpenBabel12172121453D
Hydescorer 1.1.2 b8048283
 39 41  0  0  0  0  0  0  0  0999 V2000
   -2.4274  -14.2334    4.9438 C   0  0  0  0  0  0  0  0  0  0  0  0
   -1.2994  -13.6086    5.4743 C   0  0  0  0  0  0  0  0  0  0  0  0
   -0.3881  -14.3351    6.2405 C   0  0  0  0  0  0  0  0  0  0  0  0
   -0.6243  -15.6940    6.4715 C   0  0  0  0  0  0  0  0  0  0  0  0
   -1.7625  -16.3263    5.9787 C   0  0  0  0  0  0  0  0  0  0  0  0
   -2.6435  -15.5898    5.1934 C   0  0  0  0  0  0  0  0  0  0  0  0
   -3.7834  -16.2150    4.6577 N   0  0  0  0  0  0  0  0  0  0  0  0
   -4.9635  -16.4454    5.3012 C   0  0  0  0  0  0  0  0  0  0  0  0
   -5.0085  -16.0526    6.4451 O   0  0  0  0  0  0  0  0  0  0  0  0
   -6.1478  -17.1324    4.6369 C   0  0  0  0  0  0  0  0  0  0  0  0
    0.3346  -16.4778    7.2022 N   0  0  0  0  0  0  0  0  0  0  0  0
    0.4263  -16.6097    8.5419 C   0  0  0  0  0  0  0  0  0  0  0  0
    1.3583  -17.4681    8.8356 N   0  0  0  0  0  0  0  0  0  0  0  0
    1.8974  -17.9007    7.6404 N   0  0  0  0  0  0  0  0  0  0  0  0
    1.2782  -17.2990    6.6838 C   0  0  0  0  0  0  0  0  0  0  0  0
    1.5461  -17.4600    5.2022 C   0  0  0  0  0  0  0  0  0  0  0  0
   -0.5795  -15.7262    9.6599 S   0  0  0  0  0  0  0  0  0  0  0  0
   -6.9443  -16.1013    3.8388 C   0  0  0  0  0  0  0  0  0  0  0  0
   -6.7365  -15.9350    2.4672 C   0  0  0  0  0  0  0  0  0  0  0  0
   -7.4833  -15.0506    1.6996 C   0  0  0  0  0  0  0  0  0  0  0  0
   -8.4628  -14.2838    2.3207 C   0  0  0  0  0  0  0  0  0  0  0  0
   -8.6732  -14.4025    3.6947 C   0  0  0  0  0  0  0  0  0  0  0  0
   -7.9142  -15.2999    4.4503 C   0  0  0  0  0  0  0  0  0  0  0  0
   -5.7834  -16.6621    1.8382 F   0  0  0  0  0  0  0  0  0  0  0  0
   -9.9995  -13.3514    4.5372 Br  0  0  0  0  0  0  0  0  0  0  0  0
   -3.0768  -13.7137    4.3886 H   0  0  0  0  0  0  0  0  0  0  0  0
   -1.1431  -12.6355    5.3048 H   0  0  0  0  0  0  0  0  0  0  0  0
    0.4234  -13.8903    6.6195 H   0  0  0  0  0  0  0  0  0  0  0  0
   -1.9427  -17.2881    6.1846 H   0  0  0  0  0  0  0  0  0  0  0  0
   -3.7225  -16.5220    3.7079 H   0  0  0  0  0  0  0  0  0  0  0  0
   -6.7344  -17.5391    5.3371 H   0  0  0  0  0  0  0  0  0  0  0  0
   -5.8172  -17.8485    4.0220 H   0  0  0  0  0  0  0  0  0  0  0  0
    2.2862  -18.1187    5.0669 H   0  0  0  0  0  0  0  0  0  0  0  0
    0.7188  -17.7901    4.7478 H   0  0  0  0  0  0  0  0  0  0  0  0
    1.8103  -16.5773    4.8135 H   0  0  0  0  0  0  0  0  0  0  0  0
   -7.3193  -14.9668    0.7168 H   0  0  0  0  0  0  0  0  0  0  0  0
   -9.0160  -13.6476    1.7830 H   0  0  0  0  0  0  0  0  0  0  0  0
   -8.0656  -15.3699    5.4363 H   0  0  0  0  0  0  0  0  0  0  0  0
    1.6322  -17.7592    9.7522 H   0  0  0  0  0  0  0  0  0  0  0  0
  1  2  2  0  0  0  0
  1  6  1  0  0  0  0
  1 26  1  0  0  0  0
  2  3  1  0  0  0  0
  2 27  1  0  0  0  0
  3  4  2  0  0  0  0
  3 28  1  0  0  0  0
  4  5  1  0  0  0  0
  4 11  1  0  0  0  0
  5  6  2  0  0  0  0
  5 29  1  0  0  0  0
  6  7  1  0  0  0  0
  7  8  1  0  0  0  0
  7 30  1  0  0  0  0
  8  9  2  0  0  0  0
  8 10  1  0  0  0  0
 10 18  1  0  0  0  0
 10 31  1  0  0  0  0
 10 32  1  0  0  0  0
 11 12  1  0  0  0  0
 11 15  1  0  0  0  0
 12 13  1  0  0  0  0
 12 17  2  0  0  0  0
 13 14  1  0  0  0  0
 13 39  1  0  0  0  0
 14 15  2  0  0  0  0
 15 16  1  0  0  0  0
 16 33  1  0  0  0  0
 16 34  1  0  0  0  0
 16 35  1  0  0  0  0
 18 19  2  0  0  0  0
 18 23  1  0  0  0  0
 19 20  1  0  0  0  0
 19 24  1  0  0  0  0
 20 21  2  0  0  0  0
 20 36  1  0  0  0  0
 21 22  1  0  0  0  0
 21 37  1  0  0  0  0
 22 23  2  0  0  0  0
 22 25  1  0  0  0  0
 23 38  1  0  0  0  0
M  END
>  <BIOSOLVEIT.HYDE_ESTIMATED_AFFINITY_LOWER_BOUNDARY [nM]>
5105193.756274

>  <BIOSOLVEIT.HYDE_ESTIMATED_AFFINITY_UPPER_BOUNDARY [nM]>
507231183.980160

>  <BIOSOLVEIT.HYDE_LIGAND_EFFICIENCY range: ++, +, 0, -, -->
--

>  <BIOSOLVEIT.HYDE_LIGAND_LIPOPHILIC_EFFICIENCY range: ++, +, 0, -, -->
--

>  <BIOSOLVEIT.INTER_CLASH range: red, yellow, green>
green

>  <BIOSOLVEIT.INTRA_CLASH range: red, yellow, green>
green

>  <BIOSOLVEIT.LOGP>
3.7973

>  <BIOSOLVEIT.MOLECULAR WEIGHT>
421.292

>  <BIOSOLVEIT.MOLECULE_CHECKSUM>
LTcuMzgyNjk7MC4yOTUzMDc=

>  <BIOSOLVEIT.TORSION_QUALITY range: red, yellow, green, not rotatable>
yellow

>  <BIOSOLVEIT.TPSA>
56.73

$$$$
