Z279577954.****
 OpenBabel12172121453D
Hydescorer 1.1.2 b8048283
 33 34  0  0  0  0  0  0  0  0999 V2000
   -0.5637  -12.9337   -5.7755 C   0  0  0  0  0  0  0  0  0  0  0  0
   -0.4819  -11.8376   -4.9260 C   0  0  0  0  0  0  0  0  0  0  0  0
   -1.6166  -11.4432   -4.2207 C   0  0  0  0  0  0  0  0  0  0  0  0
   -2.8072  -12.1665   -4.3743 C   0  0  0  0  0  0  0  0  0  0  0  0
   -2.8927  -13.2630   -5.2350 C   0  0  0  0  0  0  0  0  0  0  0  0
   -1.7567  -13.6468   -5.9526 C   0  0  0  0  0  0  0  0  0  0  0  0
   -1.7379  -14.7564   -6.8518 N   0  0  0  0  0  0  0  0  0  0  0  0
   -2.7110  -15.1807   -7.7157 C   0  0  0  0  0  0  0  0  0  0  0  0
   -2.3797  -16.3964   -8.5358 C   0  0  0  0  0  0  0  0  0  0  0  0
   -3.7647  -14.5969   -7.8232 O   0  0  0  0  0  0  0  0  0  0  0  0
    0.5481  -13.3139   -6.4458 F   0  0  0  0  0  0  0  0  0  0  0  0
   -3.9698  -11.7912   -3.6709 N   0  0  0  0  0  0  0  0  0  0  0  0
   -5.0217  -11.0438   -4.1296 C   0  0  0  0  0  0  0  0  0  0  0  0
   -6.1856  -10.7153   -3.2986 C   0  0  0  0  0  0  0  0  0  0  0  0
   -4.9016  -10.6807   -5.2887 O   0  0  0  0  0  0  0  0  0  0  0  0
   -7.4332  -10.5057   -3.9029 C   0  0  0  0  0  0  0  0  0  0  0  0
   -8.5471  -10.1829   -3.1365 C   0  0  0  0  0  0  0  0  0  0  0  0
   -8.4334  -10.0735   -1.7534 C   0  0  0  0  0  0  0  0  0  0  0  0
   -7.2049  -10.2933   -1.1372 C   0  0  0  0  0  0  0  0  0  0  0  0
   -6.0902  -10.6172   -1.9019 C   0  0  0  0  0  0  0  0  0  0  0  0
    0.3788  -11.3391   -4.8223 H   0  0  0  0  0  0  0  0  0  0  0  0
   -1.5820  -10.6516   -3.6106 H   0  0  0  0  0  0  0  0  0  0  0  0
   -3.7518  -13.7648   -5.3360 H   0  0  0  0  0  0  0  0  0  0  0  0
   -0.8974  -15.2983   -6.8499 H   0  0  0  0  0  0  0  0  0  0  0  0
   -3.1533  -16.6194   -9.1290 H   0  0  0  0  0  0  0  0  0  0  0  0
   -1.5726  -16.2105   -9.0963 H   0  0  0  0  0  0  0  0  0  0  0  0
   -2.1927  -17.1679   -7.9277 H   0  0  0  0  0  0  0  0  0  0  0  0
   -4.0341  -12.1084   -2.7248 H   0  0  0  0  0  0  0  0  0  0  0  0
   -7.5226  -10.5892   -4.8954 H   0  0  0  0  0  0  0  0  0  0  0  0
   -9.4306  -10.0292   -3.5789 H   0  0  0  0  0  0  0  0  0  0  0  0
   -9.2340   -9.8372   -1.2029 H   0  0  0  0  0  0  0  0  0  0  0  0
   -7.1241  -10.2180   -0.1433 H   0  0  0  0  0  0  0  0  0  0  0  0
   -5.2121  -10.7818   -1.4526 H   0  0  0  0  0  0  0  0  0  0  0  0
  1  2  2  0  0  0  0
  1  6  1  0  0  0  0
  1 11  1  0  0  0  0
  2  3  1  0  0  0  0
  2 21  1  0  0  0  0
  3  4  2  0  0  0  0
  3 22  1  0  0  0  0
  4  5  1  0  0  0  0
  4 12  1  0  0  0  0
  5  6  2  0  0  0  0
  5 23  1  0  0  0  0
  6  7  1  0  0  0  0
  7  8  1  0  0  0  0
  7 24  1  0  0  0  0
  8  9  1  0  0  0  0
  8 10  2  0  0  0  0
  9 25  1  0  0  0  0
  9 26  1  0  0  0  0
  9 27  1  0  0  0  0
 12 13  1  0  0  0  0
 12 28  1  0  0  0  0
 13 14  1  0  0  0  0
 13 15  2  0  0  0  0
 14 16  2  0  0  0  0
 14 20  1  0  0  0  0
 16 17  1  0  0  0  0
 16 29  1  0  0  0  0
 17 18  2  0  0  0  0
 17 30  1  0  0  0  0
 18 19  1  0  0  0  0
 18 31  1  0  0  0  0
 19 20  2  0  0  0  0
 19 32  1  0  0  0  0
 20 33  1  0  0  0  0
M  END
>  <BIOSOLVEIT.HYDE_ESTIMATED_AFFINITY_LOWER_BOUNDARY [nM]>
30265059.123251

>  <BIOSOLVEIT.HYDE_ESTIMATED_AFFINITY_UPPER_BOUNDARY [nM]>
3007012565.086178

>  <BIOSOLVEIT.HYDE_LIGAND_EFFICIENCY range: ++, +, 0, -, -->
--

>  <BIOSOLVEIT.HYDE_LIGAND_LIPOPHILIC_EFFICIENCY range: ++, +, 0, -, -->
--

>  <BIOSOLVEIT.INTER_CLASH range: red, yellow, green>
green

>  <BIOSOLVEIT.INTRA_CLASH range: red, yellow, green>
green

>  <BIOSOLVEIT.LOGP>
3.0364

>  <BIOSOLVEIT.MOLECULAR WEIGHT>
272.278

>  <BIOSOLVEIT.MOLECULE_CHECKSUM>
LTIuOTcwODswLjE0ODU0

>  <BIOSOLVEIT.TORSION_QUALITY range: red, yellow, green, not rotatable>
yellow

>  <BIOSOLVEIT.TPSA>
58.2

$$$$
