G11.sdf
 OpenBabel12172121453D
Hydescorer 1.1.2 b8048283
 83 85  0  0  0  0  0  0  0  0999 V2000
   -2.6971  -19.7929    3.1895 C   0  0  0  0  0  0  0  0  0  0  0  0
   -1.9539  -19.0589    4.1092 C   0  0  0  0  0  0  0  0  0  0  0  0
   -2.1826  -17.6947    4.2657 C   0  0  0  0  0  0  0  0  0  0  0  0
   -3.1651  -17.0572    3.4991 C   0  0  0  0  0  0  0  0  0  0  0  0
   -3.9063  -17.7887    2.5652 C   0  0  0  0  0  0  0  0  0  0  0  0
   -3.6706  -19.1530    2.4182 C   0  0  0  0  0  0  0  0  0  0  0  0
   -4.5953  -20.0700    1.2754 Cl  0  0  0  0  0  0  0  0  0  0  0  0
   -3.3798  -15.6706    3.6901 N   0  0  0  0  0  0  0  0  0  0  0  0
   -3.7938  -14.8980    2.4895 C   0  0  0  0  0  0  0  0  0  0  0  0
   -2.5316  -14.9456    4.6602 C   0  0  0  0  0  0  0  0  0  0  0  0
   -5.1881  -14.3560    2.7550 C   0  0  0  0  0  0  0  0  0  0  0  0
   -5.6094  -13.0542    2.6716 C   0  0  0  0  0  0  0  0  0  0  0  0
   -6.9698  -12.8959    2.9618 C   0  0  0  0  0  0  0  0  0  0  0  0
   -7.6042  -14.0814    3.2673 C   0  0  0  0  0  0  0  0  0  0  0  0
   -6.4825  -15.4038    3.2123 S   0  0  0  0  0  0  0  0  0  0  0  0
   -9.0036  -14.3163    3.5786 C   0  0  0  0  0  0  0  0  0  0  0  0
   -9.8971  -13.2934    3.4226 N   0  0  0  0  0  0  0  0  0  0  0  0
   -9.4610  -15.3968    3.9400 O   0  0  0  0  0  0  0  0  0  0  0  0
  -11.3337  -13.4812    3.7260 C   0  0  2  0  0  0  0  0  0  0  0  0
  -12.1233  -12.2852    3.1434 C   0  0  0  0  0  0  0  0  0  0  0  0
  -11.4349  -13.5504    5.2700 C   0  0  0  0  0  0  0  0  0  0  0  0
  -12.8772  -13.9123    5.6968 C   0  0  0  0  0  0  0  0  0  0  0  0
  -13.3958  -15.1952    5.0122 C   0  0  0  0  0  0  0  0  0  0  0  0
  -14.7948  -15.5763    5.5182 C   0  0  0  0  0  0  0  0  0  0  0  0
  -14.8018  -15.7504    7.0420 C   0  0  0  0  0  0  0  0  0  0  0  0
  -14.2940  -14.4788    7.7327 C   0  0  0  0  0  0  0  0  0  0  0  0
  -12.8943  -14.1022    7.2254 C   0  0  0  0  0  0  0  0  0  0  0  0
  -12.1343  -11.1622    3.6409 O   0  0  0  0  0  0  0  0  0  0  0  0
  -12.7387  -12.4978    1.9784 N   0  0  0  0  0  0  0  0  0  0  0  0
  -13.5516  -11.5354    1.2118 C   0  0  1  0  0  0  0  0  0  0  0  0
  -13.1469  -11.3476   -0.2870 C   0  0  0  0  0  0  0  0  0  0  0  0
  -15.0520  -11.8907    1.3952 C   0  0  0  0  0  0  0  0  0  0  0  0
  -15.4900  -11.9528    2.8725 C   0  0  0  0  0  0  0  0  0  0  0  0
  -15.9789  -10.9141    0.6467 C   0  0  0  0  0  0  0  0  0  0  0  0
  -13.2069  -10.1215   -0.8166 N   0  0  0  0  0  0  0  0  0  0  0  0
  -12.7820  -12.2988   -0.9737 O   0  0  0  0  0  0  0  0  0  0  0  0
  -12.8625   -9.7886   -2.1959 C   0  0  0  0  0  0  0  0  0  0  0  0
  -11.3688   -9.4859   -2.3108 C   0  0  0  0  0  0  0  0  0  0  0  0
  -10.6245  -10.6421   -1.9500 O   0  0  0  0  0  0  0  0  0  0  0  0
   -9.2237  -10.4417   -2.0465 C   0  0  0  0  0  0  0  0  0  0  0  0
   -2.5352  -20.7738    3.0812 H   0  0  0  0  0  0  0  0  0  0  0  0
   -1.2532  -19.5130    4.6596 H   0  0  0  0  0  0  0  0  0  0  0  0
   -1.6449  -17.1701    4.9258 H   0  0  0  0  0  0  0  0  0  0  0  0
   -4.6009  -17.3348    2.0070 H   0  0  0  0  0  0  0  0  0  0  0  0
   -3.8062  -15.4945    1.6870 H   0  0  0  0  0  0  0  0  0  0  0  0
   -3.1576  -14.1424    2.3334 H   0  0  0  0  0  0  0  0  0  0  0  0
   -2.8008  -13.9828    4.6840 H   0  0  0  0  0  0  0  0  0  0  0  0
   -2.6472  -15.3466    5.5690 H   0  0  0  0  0  0  0  0  0  0  0  0
   -1.5732  -15.0170    4.3838 H   0  0  0  0  0  0  0  0  0  0  0  0
   -5.0062  -12.2947    2.4280 H   0  0  0  0  0  0  0  0  0  0  0  0
   -7.4352  -12.0109    2.9490 H   0  0  0  0  0  0  0  0  0  0  0  0
   -9.5750  -12.4040    3.0983 H   0  0  0  0  0  0  0  0  0  0  0  0
  -11.6599  -14.3362    3.3227 H   0  0  0  0  0  0  0  0  0  0  0  0
  -11.1893  -12.6616    5.6570 H   0  0  0  0  0  0  0  0  0  0  0  0
  -10.8048  -14.2480    5.6112 H   0  0  0  0  0  0  0  0  0  0  0  0
  -13.4834  -13.1531    5.4598 H   0  0  0  0  0  0  0  0  0  0  0  0
  -12.7641  -15.9456    5.2070 H   0  0  0  0  0  0  0  0  0  0  0  0
  -13.4377  -15.0425    4.0248 H   0  0  0  0  0  0  0  0  0  0  0  0
  -15.0742  -16.4357    5.0900 H   0  0  0  0  0  0  0  0  0  0  0  0
  -15.4403  -14.8544    5.2689 H   0  0  0  0  0  0  0  0  0  0  0  0
  -14.2089  -16.5172    7.2879 H   0  0  0  0  0  0  0  0  0  0  0  0
  -15.7352  -15.9397    7.3468 H   0  0  0  0  0  0  0  0  0  0  0  0
  -14.2534  -14.6360    8.7194 H   0  0  0  0  0  0  0  0  0  0  0  0
  -14.9251  -13.7273    7.5405 H   0  0  0  0  0  0  0  0  0  0  0  0
  -12.6098  -13.2485    7.6617 H   0  0  0  0  0  0  0  0  0  0  0  0
  -12.2539  -14.8307    7.4691 H   0  0  0  0  0  0  0  0  0  0  0  0
  -12.6376  -13.4102    1.5818 H   0  0  0  0  0  0  0  0  0  0  0  0
  -13.4194  -10.6464    1.6503 H   0  0  0  0  0  0  0  0  0  0  0  0
  -15.1947  -12.7991    1.0023 H   0  0  0  0  0  0  0  0  0  0  0  0
  -16.4615  -12.1848    2.9228 H   0  0  0  0  0  0  0  0  0  0  0  0
  -14.9555  -12.6505    3.3496 H   0  0  0  0  0  0  0  0  0  0  0  0
  -15.3370  -11.0633    3.3032 H   0  0  0  0  0  0  0  0  0  0  0  0
  -16.9315  -11.1805    0.7927 H   0  0  0  0  0  0  0  0  0  0  0  0
  -15.8354   -9.9868    0.9928 H   0  0  0  0  0  0  0  0  0  0  0  0
  -15.7713  -10.9408   -0.3311 H   0  0  0  0  0  0  0  0  0  0  0  0
  -13.5106   -9.3761   -0.2232 H   0  0  0  0  0  0  0  0  0  0  0  0
  -13.3850   -8.9853   -2.4818 H   0  0  0  0  0  0  0  0  0  0  0  0
  -13.0890  -10.5616   -2.7884 H   0  0  0  0  0  0  0  0  0  0  0  0
  -11.1328   -8.7321   -1.6975 H   0  0  0  0  0  0  0  0  0  0  0  0
  -11.1516   -9.2296   -3.2528 H   0  0  0  0  0  0  0  0  0  0  0  0
   -8.7480  -11.2809   -1.7831 H   0  0  0  0  0  0  0  0  0  0  0  0
   -8.9850  -10.2047   -2.9883 H   0  0  0  0  0  0  0  0  0  0  0  0
   -8.9506   -9.6981   -1.4362 H   0  0  0  0  0  0  0  0  0  0  0  0
  1  2  2  0  0  0  0
  1  6  1  0  0  0  0
  1 41  1  0  0  0  0
  2  3  1  0  0  0  0
  2 42  1  0  0  0  0
  3  4  2  0  0  0  0
  3 43  1  0  0  0  0
  4  5  1  0  0  0  0
  4  8  1  0  0  0  0
  5  6  2  0  0  0  0
  5 44  1  0  0  0  0
  6  7  1  0  0  0  0
  8  9  1  0  0  0  0
  8 10  1  0  0  0  0
  9 11  1  0  0  0  0
  9 45  1  0  0  0  0
  9 46  1  0  0  0  0
 10 47  1  0  0  0  0
 10 48  1  0  0  0  0
 10 49  1  0  0  0  0
 11 12  2  0  0  0  0
 11 15  1  0  0  0  0
 12 13  1  0  0  0  0
 12 50  1  0  0  0  0
 13 14  2  0  0  0  0
 13 51  1  0  0  0  0
 14 15  1  0  0  0  0
 14 16  1  0  0  0  0
 16 17  1  0  0  0  0
 16 18  2  0  0  0  0
 17 19  1  0  0  0  0
 17 52  1  0  0  0  0
 19 20  1  0  0  0  0
 19 21  1  0  0  0  0
 19 53  1  6  0  0  0
 20 28  2  0  0  0  0
 20 29  1  0  0  0  0
 21 22  1  0  0  0  0
 21 54  1  0  0  0  0
 21 55  1  0  0  0  0
 22 23  1  0  0  0  0
 22 27  1  0  0  0  0
 22 56  1  0  0  0  0
 23 24  1  0  0  0  0
 23 57  1  0  0  0  0
 23 58  1  0  0  0  0
 24 25  1  0  0  0  0
 24 59  1  0  0  0  0
 24 60  1  0  0  0  0
 25 26  1  0  0  0  0
 25 61  1  0  0  0  0
 25 62  1  0  0  0  0
 26 27  1  0  0  0  0
 26 63  1  0  0  0  0
 26 64  1  0  0  0  0
 27 65  1  0  0  0  0
 27 66  1  0  0  0  0
 29 30  1  0  0  0  0
 29 67  1  0  0  0  0
 30 31  1  0  0  0  0
 30 32  1  0  0  0  0
 30 68  1  1  0  0  0
 31 35  1  0  0  0  0
 31 36  2  0  0  0  0
 32 33  1  0  0  0  0
 32 34  1  0  0  0  0
 32 69  1  0  0  0  0
 33 70  1  0  0  0  0
 33 71  1  0  0  0  0
 33 72  1  0  0  0  0
 34 73  1  0  0  0  0
 34 74  1  0  0  0  0
 34 75  1  0  0  0  0
 35 37  1  0  0  0  0
 35 76  1  0  0  0  0
 37 38  1  0  0  0  0
 37 77  1  0  0  0  0
 37 78  1  0  0  0  0
 38 39  1  0  0  0  0
 38 79  1  0  0  0  0
 38 80  1  0  0  0  0
 39 40  1  0  0  0  0
 40 81  1  0  0  0  0
 40 82  1  0  0  0  0
 40 83  1  0  0  0  0
M  END
>  <BIOSOLVEIT.HYDE_ESTIMATED_AFFINITY_LOWER_BOUNDARY [nM]>
60075207.709438

>  <BIOSOLVEIT.HYDE_ESTIMATED_AFFINITY_UPPER_BOUNDARY [nM]>
5968827078.671055

>  <BIOSOLVEIT.HYDE_LIGAND_EFFICIENCY range: ++, +, 0, -, -->
--

>  <BIOSOLVEIT.HYDE_LIGAND_LIPOPHILIC_EFFICIENCY range: ++, +, 0, -, -->
--

>  <BIOSOLVEIT.INTER_CLASH range: red, yellow, green>
green

>  <BIOSOLVEIT.INTRA_CLASH range: red, yellow, green>
green

>  <BIOSOLVEIT.LOGP>
5.0101

>  <BIOSOLVEIT.MOLECULAR WEIGHT>
591.212

>  <BIOSOLVEIT.MOLECULE_CHECKSUM>
LTEuMjcxMjI7MC4wMzE3ODA1

>  <BIOSOLVEIT.TORSION_QUALITY range: red, yellow, green, not rotatable>
yellow

>  <BIOSOLVEIT.TPSA>
99.77

$$$$
