PV-001799426692.****
 OpenBabel12172121453D
Hydescorer 1.1.2 b8048283
 55 58  0  0  0  0  0  0  0  0999 V2000
   -5.8758  -13.5740    3.4997 C   0  0  0  0  0  0  0  0  0  0  0  0
   -5.8020  -12.6973    2.4238 C   0  0  0  0  0  0  0  0  0  0  0  0
   -6.5586  -12.9182    1.2641 C   0  0  0  0  0  0  0  0  0  0  0  0
   -7.3829  -14.0552    1.2115 C   0  0  0  0  0  0  0  0  0  0  0  0
   -7.4551  -14.9280    2.2904 C   0  0  0  0  0  0  0  0  0  0  0  0
   -6.7049  -14.6984    3.4491 C   0  0  0  0  0  0  0  0  0  0  0  0
   -6.7851  -15.6170    4.5808 C   0  0  0  0  0  0  0  0  0  0  0  0
   -6.4687  -11.9717    0.1453 C   0  0  0  0  0  0  0  0  0  0  0  0
   -7.5119  -11.8558   -0.7405 N   0  0  0  0  0  0  0  0  0  0  0  0
   -5.4989  -11.2535   -0.0539 O   0  0  0  0  0  0  0  0  0  0  0  0
   -7.4713  -10.9151   -1.8869 C   0  0  1  0  0  0  0  0  0  0  0  0
   -8.6128  -11.2072   -2.8808 C   0  0  0  0  0  0  0  0  0  0  0  0
   -9.7628  -10.7399   -2.1022 N   0  3  1  0  0  0  0  0  0  0  0  0
   -9.3733   -9.4054   -1.6265 C   0  0  0  0  0  0  0  0  0  0  0  0
   -7.8632   -9.5367   -1.3443 C   0  0  0  0  0  0  0  0  0  0  0  0
  -10.9551  -10.6729   -2.9664 C   0  0  0  0  0  0  0  0  0  0  0  0
  -12.1001  -10.1549   -2.0728 C   0  0  0  0  0  0  0  0  0  0  0  0
  -13.3204   -9.6961   -2.8818 C   0  0  0  0  0  0  0  0  0  0  0  0
  -14.4857   -9.8027   -1.8946 C   0  0  0  0  0  0  0  0  0  0  0  0
  -14.0383  -10.7886   -0.8091 C   0  0  0  0  0  0  0  0  0  0  0  0
  -12.6778  -11.3171   -1.2642 C   0  0  0  0  0  0  0  0  0  0  0  0
   -6.6173  -15.1506    5.8897 C   0  0  0  0  0  0  0  0  0  0  0  0
   -6.6948  -16.0256    6.9684 C   0  0  0  0  0  0  0  0  0  0  0  0
   -6.9414  -17.3783    6.7522 C   0  0  0  0  0  0  0  0  0  0  0  0
   -7.1084  -17.8544    5.4556 C   0  0  0  0  0  0  0  0  0  0  0  0
   -7.0304  -16.9807    4.3766 C   0  0  0  0  0  0  0  0  0  0  0  0
   -5.3299  -13.3985    4.3190 H   0  0  0  0  0  0  0  0  0  0  0  0
   -5.2019  -11.8992    2.4775 H   0  0  0  0  0  0  0  0  0  0  0  0
   -7.9227  -14.2378    0.3898 H   0  0  0  0  0  0  0  0  0  0  0  0
   -8.0503  -15.7298    2.2381 H   0  0  0  0  0  0  0  0  0  0  0  0
   -8.3245  -12.4234   -0.6085 H   0  0  0  0  0  0  0  0  0  0  0  0
   -6.5766  -10.9038   -2.3334 H   0  0  0  0  0  0  0  0  0  0  0  0
   -8.6798  -12.1825   -3.0912 H   0  0  0  0  0  0  0  0  0  0  0  0
   -8.5057  -10.6897   -3.7297 H   0  0  0  0  0  0  0  0  0  0  0  0
   -9.8712   -9.1657   -0.7931 H   0  0  0  0  0  0  0  0  0  0  0  0
   -9.5451   -8.7137   -2.3280 H   0  0  0  0  0  0  0  0  0  0  0  0
   -7.3543   -8.8166   -1.8161 H   0  0  0  0  0  0  0  0  0  0  0  0
   -7.6840   -9.4826   -0.3620 H   0  0  0  0  0  0  0  0  0  0  0  0
  -11.1766  -11.5803   -3.3236 H   0  0  0  0  0  0  0  0  0  0  0  0
  -10.7972  -10.0444   -3.7280 H   0  0  0  0  0  0  0  0  0  0  0  0
  -11.7785   -9.4257   -1.4687 H   0  0  0  0  0  0  0  0  0  0  0  0
  -13.4679  -10.2928   -3.6706 H   0  0  0  0  0  0  0  0  0  0  0  0
  -13.2050   -8.7531   -3.1941 H   0  0  0  0  0  0  0  0  0  0  0  0
  -15.3028  -10.1452   -2.3584 H   0  0  0  0  0  0  0  0  0  0  0  0
  -14.6813   -8.9087   -1.4915 H   0  0  0  0  0  0  0  0  0  0  0  0
  -14.6943  -11.5390   -0.7280 H   0  0  0  0  0  0  0  0  0  0  0  0
  -13.9542  -10.3226    0.0718 H   0  0  0  0  0  0  0  0  0  0  0  0
  -12.0961  -11.5313   -0.4794 H   0  0  0  0  0  0  0  0  0  0  0  0
  -12.7826  -12.1324   -1.8337 H   0  0  0  0  0  0  0  0  0  0  0  0
   -6.4401  -14.1797    6.0509 H   0  0  0  0  0  0  0  0  0  0  0  0
   -6.5734  -15.6825    7.8998 H   0  0  0  0  0  0  0  0  0  0  0  0
   -6.9985  -18.0071    7.5277 H   0  0  0  0  0  0  0  0  0  0  0  0
   -7.2848  -18.8262    5.2994 H   0  0  0  0  0  0  0  0  0  0  0  0
   -7.1504  -17.3290    3.4469 H   0  0  0  0  0  0  0  0  0  0  0  0
   -9.9290  -11.3501   -1.3276 H   0  0  0  0  0  0  0  0  0  0  0  0
  1  2  2  0  0  0  0
  1  6  1  0  0  0  0
  1 27  1  0  0  0  0
  2  3  1  0  0  0  0
  2 28  1  0  0  0  0
  3  4  2  0  0  0  0
  3  8  1  0  0  0  0
  4  5  1  0  0  0  0
  4 29  1  0  0  0  0
  5  6  2  0  0  0  0
  5 30  1  0  0  0  0
  6  7  1  0  0  0  0
  7 22  2  0  0  0  0
  7 26  1  0  0  0  0
  8  9  1  0  0  0  0
  8 10  2  0  0  0  0
  9 11  1  0  0  0  0
  9 31  1  0  0  0  0
 11 12  1  0  0  0  0
 11 15  1  0  0  0  0
 11 32  1  6  0  0  0
 12 13  1  0  0  0  0
 12 33  1  0  0  0  0
 12 34  1  0  0  0  0
 13 14  1  0  0  0  0
 13 16  1  0  0  0  0
 13 55  1  1  0  0  0
 14 15  1  0  0  0  0
 14 35  1  0  0  0  0
 14 36  1  0  0  0  0
 15 37  1  0  0  0  0
 15 38  1  0  0  0  0
 16 17  1  0  0  0  0
 16 39  1  0  0  0  0
 16 40  1  0  0  0  0
 17 18  1  0  0  0  0
 17 21  1  0  0  0  0
 17 41  1  0  0  0  0
 18 19  1  0  0  0  0
 18 42  1  0  0  0  0
 18 43  1  0  0  0  0
 19 20  1  0  0  0  0
 19 44  1  0  0  0  0
 19 45  1  0  0  0  0
 20 21  1  0  0  0  0
 20 46  1  0  0  0  0
 20 47  1  0  0  0  0
 21 48  1  0  0  0  0
 21 49  1  0  0  0  0
 22 23  1  0  0  0  0
 22 50  1  0  0  0  0
 23 24  2  0  0  0  0
 23 51  1  0  0  0  0
 24 25  1  0  0  0  0
 24 52  1  0  0  0  0
 25 26  2  0  0  0  0
 25 53  1  0  0  0  0
 26 54  1  0  0  0  0
M  CHG  1  13   1
M  END
>  <BIOSOLVEIT.HYDE_ESTIMATED_AFFINITY_LOWER_BOUNDARY [nM]>
1242006221.282141

>  <BIOSOLVEIT.HYDE_ESTIMATED_AFFINITY_UPPER_BOUNDARY [nM]>
123400661406.320099

>  <BIOSOLVEIT.HYDE_LIGAND_EFFICIENCY range: ++, +, 0, -, -->
--

>  <BIOSOLVEIT.HYDE_LIGAND_LIPOPHILIC_EFFICIENCY range: ++, +, 0, -, -->
--

>  <BIOSOLVEIT.INTER_CLASH range: red, yellow, green>
green

>  <BIOSOLVEIT.INTRA_CLASH range: red, yellow, green>
green

>  <BIOSOLVEIT.LOGP>
2.9308

>  <BIOSOLVEIT.MOLECULAR WEIGHT>
349.495

>  <BIOSOLVEIT.MOLECULE_CHECKSUM>
Ni4yMzcyNjsw

>  <BIOSOLVEIT.TORSION_QUALITY range: red, yellow, green, not rotatable>
green

>  <BIOSOLVEIT.TPSA>
33.54

$$$$
