Z1315931726.****
 OpenBabel12172121453D
Hydescorer 1.1.2 b8048283
 37 38  0  0  0  0  0  0  0  0999 V2000
   -0.7823  -15.7828    3.8761 C   0  0  0  0  0  0  0  0  0  0  0  0
   -1.8281  -16.6152    3.4832 C   0  0  0  0  0  0  0  0  0  0  0  0
   -2.9571  -16.0937    2.8580 C   0  0  0  0  0  0  0  0  0  0  0  0
   -3.0110  -14.7142    2.6296 C   0  0  0  0  0  0  0  0  0  0  0  0
   -1.9562  -13.8762    2.9927 C   0  0  0  0  0  0  0  0  0  0  0  0
   -0.8370  -14.4017    3.6440 C   0  0  0  0  0  0  0  0  0  0  0  0
    0.3166  -13.4901    4.0792 C   0  0  0  0  0  0  0  0  0  0  0  0
   -0.1434  -12.4691    4.8311 F   0  0  0  0  0  0  0  0  0  0  0  0
    1.2220  -14.1811    4.7966 F   0  0  0  0  0  0  0  0  0  0  0  0
    0.9171  -12.9887    2.9880 F   0  0  0  0  0  0  0  0  0  0  0  0
   -4.0925  -17.0168    2.4489 C   0  0  0  0  0  0  0  0  0  0  0  0
   -4.1552  -14.1617    2.0194 N   0  0  0  0  0  0  0  0  0  0  0  0
   -4.8391  -13.0475    2.4182 C   0  0  0  0  0  0  0  0  0  0  0  0
   -6.0813  -12.5235    1.6818 C   0  0  0  0  0  0  0  0  0  0  0  0
   -6.8839  -13.6669    1.1478 N   0  0  0  0  0  0  0  0  0  0  0  0
   -8.0880  -13.9684    1.7907 C   0  0  0  0  0  0  0  0  0  0  0  0
   -8.0962  -14.0100    3.1828 C   0  0  0  0  0  0  0  0  0  0  0  0
   -9.2915  -14.2580    3.8518 C   0  0  0  0  0  0  0  0  0  0  0  0
  -10.4697  -14.4822    3.1357 C   0  0  0  0  0  0  0  0  0  0  0  0
  -10.4468  -14.4650    1.7436 C   0  0  0  0  0  0  0  0  0  0  0  0
   -9.2580  -14.2152    1.0652 C   0  0  0  0  0  0  0  0  0  0  0  0
   -9.3211  -14.2752    5.5845 Cl  0  0  0  0  0  0  0  0  0  0  0  0
   -4.3696  -12.4813    3.3804 O   0  0  0  0  0  0  0  0  0  0  0  0
    0.0177  -16.1757    4.3296 H   0  0  0  0  0  0  0  0  0  0  0  0
   -1.7670  -17.5989    3.6524 H   0  0  0  0  0  0  0  0  0  0  0  0
   -2.0012  -12.8987    2.7868 H   0  0  0  0  0  0  0  0  0  0  0  0
   -4.8181  -16.4814    2.0166 H   0  0  0  0  0  0  0  0  0  0  0  0
   -3.7511  -17.6989    1.8022 H   0  0  0  0  0  0  0  0  0  0  0  0
   -4.4556  -17.4777    3.2587 H   0  0  0  0  0  0  0  0  0  0  0  0
   -4.5030  -14.6344    1.2098 H   0  0  0  0  0  0  0  0  0  0  0  0
   -5.7938  -11.9386    0.9233 H   0  0  0  0  0  0  0  0  0  0  0  0
   -6.6431  -11.9934    2.3170 H   0  0  0  0  0  0  0  0  0  0  0  0
   -6.5706  -14.1965    0.3595 H   0  0  0  0  0  0  0  0  0  0  0  0
   -7.2512  -13.8632    3.6970 H   0  0  0  0  0  0  0  0  0  0  0  0
  -11.3267  -14.6545    3.6212 H   0  0  0  0  0  0  0  0  0  0  0  0
  -11.2880  -14.6329    1.2295 H   0  0  0  0  0  0  0  0  0  0  0  0
   -9.2402  -14.2121    0.0653 H   0  0  0  0  0  0  0  0  0  0  0  0
  1  2  2  0  0  0  0
  1  6  1  0  0  0  0
  1 24  1  0  0  0  0
  2  3  1  0  0  0  0
  2 25  1  0  0  0  0
  3  4  2  0  0  0  0
  3 11  1  0  0  0  0
  4  5  1  0  0  0  0
  4 12  1  0  0  0  0
  5  6  2  0  0  0  0
  5 26  1  0  0  0  0
  6  7  1  0  0  0  0
  7  8  1  0  0  0  0
  7  9  1  0  0  0  0
  7 10  1  0  0  0  0
 11 27  1  0  0  0  0
 11 28  1  0  0  0  0
 11 29  1  0  0  0  0
 12 13  1  0  0  0  0
 12 30  1  0  0  0  0
 13 14  1  0  0  0  0
 13 23  2  0  0  0  0
 14 15  1  0  0  0  0
 14 31  1  0  0  0  0
 14 32  1  0  0  0  0
 15 16  1  0  0  0  0
 15 33  1  0  0  0  0
 16 17  2  0  0  0  0
 16 21  1  0  0  0  0
 17 18  1  0  0  0  0
 17 34  1  0  0  0  0
 18 19  2  0  0  0  0
 18 22  1  0  0  0  0
 19 20  1  0  0  0  0
 19 35  1  0  0  0  0
 20 21  2  0  0  0  0
 20 36  1  0  0  0  0
 21 37  1  0  0  0  0
M  END
>  <BIOSOLVEIT.HYDE_ESTIMATED_AFFINITY_LOWER_BOUNDARY [nM]>
1112408406.539346

>  <BIOSOLVEIT.HYDE_ESTIMATED_AFFINITY_UPPER_BOUNDARY [nM]>
110524352268.701279

>  <BIOSOLVEIT.HYDE_LIGAND_EFFICIENCY range: ++, +, 0, -, -->
--

>  <BIOSOLVEIT.HYDE_LIGAND_LIPOPHILIC_EFFICIENCY range: ++, +, 0, -, -->
--

>  <BIOSOLVEIT.INTER_CLASH range: red, yellow, green>
green

>  <BIOSOLVEIT.INTRA_CLASH range: red, yellow, green>
yellow

>  <BIOSOLVEIT.LOGP>
4.71782

>  <BIOSOLVEIT.MOLECULAR WEIGHT>
342.747

>  <BIOSOLVEIT.MOLECULE_CHECKSUM>
NS45NjQwODsw

>  <BIOSOLVEIT.TORSION_QUALITY range: red, yellow, green, not rotatable>
green

>  <BIOSOLVEIT.TPSA>
41.13

$$$$
