PV-001799431004.****
 OpenBabel12172121453D
Hydescorer 1.1.2 b8048283
 61 64  0  0  0  0  0  0  0  0999 V2000
   -8.6881  -10.7894   -3.0287 N   0  0  0  0  0  0  0  0  0  0  0  0
  -10.0399  -10.3666   -2.6313 C   0  0  1  0  0  0  0  0  0  0  0  0
  -11.1301  -11.2338   -3.3161 C   0  0  0  0  0  0  0  0  0  0  0  0
  -11.7883  -11.9376   -2.1884 N   0  3  1  0  0  0  0  0  0  0  0  0
  -11.6718  -11.0383   -1.0441 C   0  0  0  0  0  0  0  0  0  0  0  0
  -10.1963  -10.6609   -1.1400 C   0  0  0  0  0  0  0  0  0  0  0  0
  -13.2233  -12.1695   -2.4765 C   0  0  0  0  0  0  0  0  0  0  0  0
  -13.3094  -13.5354   -3.1922 C   0  0  0  0  0  0  0  0  0  0  0  0
  -14.6749  -14.2140   -3.0028 C   0  0  0  0  0  0  0  0  0  0  0  0
  -14.7941  -15.1646   -4.1971 C   0  0  0  0  0  0  0  0  0  0  0  0
  -13.8335  -14.6310   -5.2655 C   0  0  0  0  0  0  0  0  0  0  0  0
  -13.2893  -13.3170   -4.7071 C   0  0  0  0  0  0  0  0  0  0  0  0
   -7.5907   -9.9825   -3.1385 C   0  0  0  0  0  0  0  0  0  0  0  0
   -7.7761   -8.8275   -2.8103 O   0  0  0  0  0  0  0  0  0  0  0  0
   -6.2992  -10.5297   -3.5446 C   0  0  0  0  0  0  0  0  0  0  0  0
   -5.4560  -11.1461   -2.6052 C   0  0  0  0  0  0  0  0  0  0  0  0
   -4.1358  -11.4246   -2.9282 C   0  0  0  0  0  0  0  0  0  0  0  0
   -3.6710  -11.1085   -4.2034 C   0  0  0  0  0  0  0  0  0  0  0  0
   -4.5336  -10.6550   -5.1998 C   0  0  0  0  0  0  0  0  0  0  0  0
   -5.8510  -10.3655   -4.8644 C   0  0  0  0  0  0  0  0  0  0  0  0
   -2.3192  -11.1134   -4.4285 O   0  0  0  0  0  0  0  0  0  0  0  0
   -1.9251  -12.2647   -5.0650 C   0  0  0  0  0  0  0  0  0  0  0  0
   -2.8776  -13.2493   -5.3247 C   0  0  0  0  0  0  0  0  0  0  0  0
   -2.5503  -14.3017   -6.1642 C   0  0  0  0  0  0  0  0  0  0  0  0
   -1.2753  -14.3855   -6.7476 C   0  0  0  0  0  0  0  0  0  0  0  0
   -0.2956  -13.4441   -6.3755 C   0  0  0  0  0  0  0  0  0  0  0  0
   -0.6205  -12.3815   -5.5370 C   0  0  0  0  0  0  0  0  0  0  0  0
   -1.0229  -15.4073   -7.7563 C   0  0  0  0  0  0  0  0  0  0  0  0
   -2.0975  -16.3592   -8.2249 C   0  0  0  0  0  0  0  0  0  0  0  0
    0.0990  -15.5528   -8.2014 O   0  0  0  0  0  0  0  0  0  0  0  0
   -8.5602  -11.7588   -3.2383 H   0  0  0  0  0  0  0  0  0  0  0  0
  -10.1823   -9.3952   -2.8219 H   0  0  0  0  0  0  0  0  0  0  0  0
  -10.7178  -11.8872   -3.9510 H   0  0  0  0  0  0  0  0  0  0  0  0
  -11.7848  -10.6593   -3.8074 H   0  0  0  0  0  0  0  0  0  0  0  0
  -11.8788  -11.5052   -0.1844 H   0  0  0  0  0  0  0  0  0  0  0  0
  -12.2648  -10.2389   -1.1404 H   0  0  0  0  0  0  0  0  0  0  0  0
   -9.9911   -9.8535   -0.5869 H   0  0  0  0  0  0  0  0  0  0  0  0
   -9.6083  -11.4181   -0.8555 H   0  0  0  0  0  0  0  0  0  0  0  0
  -13.5784  -11.4460   -3.0684 H   0  0  0  0  0  0  0  0  0  0  0  0
  -13.7478  -12.1915   -1.6254 H   0  0  0  0  0  0  0  0  0  0  0  0
  -12.5652  -14.1389   -2.9061 H   0  0  0  0  0  0  0  0  0  0  0  0
  -15.4112  -13.5375   -3.0136 H   0  0  0  0  0  0  0  0  0  0  0  0
  -14.7016  -14.7219   -2.1418 H   0  0  0  0  0  0  0  0  0  0  0  0
  -15.7317  -15.1687   -4.5448 H   0  0  0  0  0  0  0  0  0  0  0  0
  -14.5339  -16.0923   -3.9292 H   0  0  0  0  0  0  0  0  0  0  0  0
  -14.3203  -14.4707   -6.1242 H   0  0  0  0  0  0  0  0  0  0  0  0
  -13.0884  -15.2797   -5.4208 H   0  0  0  0  0  0  0  0  0  0  0  0
  -12.3585  -13.1493   -5.0316 H   0  0  0  0  0  0  0  0  0  0  0  0
  -13.8757  -12.5491   -4.9651 H   0  0  0  0  0  0  0  0  0  0  0  0
   -5.8086  -11.3850   -1.7005 H   0  0  0  0  0  0  0  0  0  0  0  0
   -3.5268  -11.8457   -2.2560 H   0  0  0  0  0  0  0  0  0  0  0  0
   -4.2106  -10.5402   -6.1391 H   0  0  0  0  0  0  0  0  0  0  0  0
   -6.4828  -10.0384   -5.5671 H   0  0  0  0  0  0  0  0  0  0  0  0
   -3.7860  -13.1965   -4.9099 H   0  0  0  0  0  0  0  0  0  0  0  0
   -3.2296  -15.0098   -6.3570 H   0  0  0  0  0  0  0  0  0  0  0  0
    0.6398  -13.5398   -6.7161 H   0  0  0  0  0  0  0  0  0  0  0  0
    0.0741  -11.7108   -5.2770 H   0  0  0  0  0  0  0  0  0  0  0  0
   -1.7186  -16.9758   -8.9151 H   0  0  0  0  0  0  0  0  0  0  0  0
   -2.4315  -16.8932   -7.4483 H   0  0  0  0  0  0  0  0  0  0  0  0
   -2.8537  -15.8390   -8.6218 H   0  0  0  0  0  0  0  0  0  0  0  0
  -11.3257  -12.8040   -2.0000 H   0  0  0  0  0  0  0  0  0  0  0  0
  1  2  1  0  0  0  0
  1 13  1  0  0  0  0
  1 31  1  0  0  0  0
  2  3  1  0  0  0  0
  2  6  1  0  0  0  0
  2 32  1  6  0  0  0
  3  4  1  0  0  0  0
  3 33  1  0  0  0  0
  3 34  1  0  0  0  0
  4  5  1  0  0  0  0
  4  7  1  0  0  0  0
  4 61  1  1  0  0  0
  5  6  1  0  0  0  0
  5 35  1  0  0  0  0
  5 36  1  0  0  0  0
  6 37  1  0  0  0  0
  6 38  1  0  0  0  0
  7  8  1  0  0  0  0
  7 39  1  0  0  0  0
  7 40  1  0  0  0  0
  8  9  1  0  0  0  0
  8 12  1  0  0  0  0
  8 41  1  0  0  0  0
  9 10  1  0  0  0  0
  9 42  1  0  0  0  0
  9 43  1  0  0  0  0
 10 11  1  0  0  0  0
 10 44  1  0  0  0  0
 10 45  1  0  0  0  0
 11 12  1  0  0  0  0
 11 46  1  0  0  0  0
 11 47  1  0  0  0  0
 12 48  1  0  0  0  0
 12 49  1  0  0  0  0
 13 14  2  0  0  0  0
 13 15  1  0  0  0  0
 15 16  2  0  0  0  0
 15 20  1  0  0  0  0
 16 17  1  0  0  0  0
 16 50  1  0  0  0  0
 17 18  2  0  0  0  0
 17 51  1  0  0  0  0
 18 19  1  0  0  0  0
 18 21  1  0  0  0  0
 19 20  2  0  0  0  0
 19 52  1  0  0  0  0
 20 53  1  0  0  0  0
 21 22  1  0  0  0  0
 22 23  2  0  0  0  0
 22 27  1  0  0  0  0
 23 24  1  0  0  0  0
 23 54  1  0  0  0  0
 24 25  2  0  0  0  0
 24 55  1  0  0  0  0
 25 26  1  0  0  0  0
 25 28  1  0  0  0  0
 26 27  2  0  0  0  0
 26 56  1  0  0  0  0
 27 57  1  0  0  0  0
 28 29  1  0  0  0  0
 28 30  2  0  0  0  0
 29 58  1  0  0  0  0
 29 59  1  0  0  0  0
 29 60  1  0  0  0  0
M  CHG  1   4   1
M  END
>  <BIOSOLVEIT.HYDE_ESTIMATED_AFFINITY_LOWER_BOUNDARY [nM]>
4396281.178174

>  <BIOSOLVEIT.HYDE_ESTIMATED_AFFINITY_UPPER_BOUNDARY [nM]>
436796527.923039

>  <BIOSOLVEIT.HYDE_LIGAND_EFFICIENCY range: ++, +, 0, -, -->
--

>  <BIOSOLVEIT.HYDE_LIGAND_LIPOPHILIC_EFFICIENCY range: ++, +, 0, -, -->
--

>  <BIOSOLVEIT.INTER_CLASH range: red, yellow, green>
green

>  <BIOSOLVEIT.INTRA_CLASH range: red, yellow, green>
green

>  <BIOSOLVEIT.LOGP>
3.2587

>  <BIOSOLVEIT.MOLECULAR WEIGHT>
407.531

>  <BIOSOLVEIT.MOLECULE_CHECKSUM>
LTcuNzUzMjk7MC4yNTg0NDM=

>  <BIOSOLVEIT.TORSION_QUALITY range: red, yellow, green, not rotatable>
yellow

>  <BIOSOLVEIT.TPSA>
59.84

$$$$
