G11.sdf
 OpenBabel12172121453D
Hydescorer 1.1.2 b8048283
 83 85  0  0  0  0  0  0  0  0999 V2000
   -7.8928   -9.7663   -2.2429 C   0  0  0  0  0  0  0  0  0  0  0  0
   -8.9246   -9.4222   -1.3746 C   0  0  0  0  0  0  0  0  0  0  0  0
  -10.2370   -9.7815   -1.6684 C   0  0  0  0  0  0  0  0  0  0  0  0
  -10.5222  -10.4942   -2.8390 C   0  0  0  0  0  0  0  0  0  0  0  0
   -9.4898  -10.8319   -3.7204 C   0  0  0  0  0  0  0  0  0  0  0  0
   -8.1806  -10.4691   -3.4157 C   0  0  0  0  0  0  0  0  0  0  0  0
   -6.8936  -10.8974   -4.4938 Cl  0  0  0  0  0  0  0  0  0  0  0  0
  -11.8663  -10.8533   -3.1031 N   0  0  0  0  0  0  0  0  0  0  0  0
  -12.7863  -10.8602   -1.9355 C   0  0  0  0  0  0  0  0  0  0  0  0
  -12.1415  -11.8661   -4.1446 C   0  0  0  0  0  0  0  0  0  0  0  0
  -12.4757  -12.1024   -1.1180 C   0  0  0  0  0  0  0  0  0  0  0  0
  -12.7913  -13.4023   -1.4185 C   0  0  0  0  0  0  0  0  0  0  0  0
  -12.3393  -14.3150   -0.4581 C   0  0  0  0  0  0  0  0  0  0  0  0
  -11.6676  -13.7186    0.5881 C   0  0  0  0  0  0  0  0  0  0  0  0
  -11.6206  -11.9971    0.3787 S   0  0  0  0  0  0  0  0  0  0  0  0
  -11.0280  -14.3378    1.7361 C   0  0  0  0  0  0  0  0  0  0  0  0
  -10.0896  -13.6291    2.4332 N   0  0  0  0  0  0  0  0  0  0  0  0
  -11.3005  -15.4571    2.1606 O   0  0  0  0  0  0  0  0  0  0  0  0
   -9.4091  -14.2147    3.6101 C   0  0  2  0  0  0  0  0  0  0  0  0
  -10.1394  -13.7433    4.8898 C   0  0  0  0  0  0  0  0  0  0  0  0
   -7.9476  -13.7047    3.5513 C   0  0  0  0  0  0  0  0  0  0  0  0
   -7.0500  -14.5407    4.4941 C   0  0  0  0  0  0  0  0  0  0  0  0
   -7.2468  -16.0608    4.3095 C   0  0  0  0  0  0  0  0  0  0  0  0
   -6.2838  -16.8641    5.1959 C   0  0  0  0  0  0  0  0  0  0  0  0
   -4.8255  -16.4817    4.9141 C   0  0  0  0  0  0  0  0  0  0  0  0
   -4.6174  -14.9737    5.1008 C   0  0  0  0  0  0  0  0  0  0  0  0
   -5.5808  -14.1741    4.2114 C   0  0  0  0  0  0  0  0  0  0  0  0
  -10.3345  -12.5644    5.1742 O   0  0  0  0  0  0  0  0  0  0  0  0
  -10.6594  -14.7029    5.6579 N   0  0  0  0  0  0  0  0  0  0  0  0
  -11.3997  -14.5293    6.9214 C   0  0  1  0  0  0  0  0  0  0  0  0
  -12.9510  -14.3874    6.7852 C   0  0  0  0  0  0  0  0  0  0  0  0
  -10.9773  -15.6529    7.9066 C   0  0  0  0  0  0  0  0  0  0  0  0
  -11.7542  -16.9694    7.7029 C   0  0  0  0  0  0  0  0  0  0  0  0
   -9.4684  -15.9547    7.8356 C   0  0  0  0  0  0  0  0  0  0  0  0
  -13.6568  -14.0239    7.8609 N   0  0  0  0  0  0  0  0  0  0  0  0
  -13.5205  -14.6045    5.7183 O   0  0  0  0  0  0  0  0  0  0  0  0
  -15.1061  -13.8502    7.8906 C   0  0  0  0  0  0  0  0  0  0  0  0
  -15.7977  -15.1994    8.0842 C   0  0  0  0  0  0  0  0  0  0  0  0
  -17.2065  -15.0091    8.0972 O   0  0  0  0  0  0  0  0  0  0  0  0
  -17.9197  -16.2224    8.2743 C   0  0  0  0  0  0  0  0  0  0  0  0
   -6.9498   -9.5117   -2.0284 H   0  0  0  0  0  0  0  0  0  0  0  0
   -8.7224   -8.9151   -0.5368 H   0  0  0  0  0  0  0  0  0  0  0  0
  -10.9761   -9.5305   -1.0432 H   0  0  0  0  0  0  0  0  0  0  0  0
   -9.6906  -11.3304   -4.5636 H   0  0  0  0  0  0  0  0  0  0  0  0
  -13.7356  -10.8861   -2.2489 H   0  0  0  0  0  0  0  0  0  0  0  0
  -12.6405  -10.0410   -1.3809 H   0  0  0  0  0  0  0  0  0  0  0  0
  -13.1282  -12.0123   -4.2150 H   0  0  0  0  0  0  0  0  0  0  0  0
  -11.7886  -11.5450   -5.0234 H   0  0  0  0  0  0  0  0  0  0  0  0
  -11.6938  -12.7262   -3.8997 H   0  0  0  0  0  0  0  0  0  0  0  0
  -13.2934  -13.6712   -2.2405 H   0  0  0  0  0  0  0  0  0  0  0  0
  -12.4886  -15.3015   -0.5242 H   0  0  0  0  0  0  0  0  0  0  0  0
   -9.8592  -12.7002    2.1435 H   0  0  0  0  0  0  0  0  0  0  0  0
   -9.4260  -15.2129    3.5540 H   0  0  0  0  0  0  0  0  0  0  0  0
   -7.9209  -12.7460    3.8344 H   0  0  0  0  0  0  0  0  0  0  0  0
   -7.6074  -13.7852    2.6144 H   0  0  0  0  0  0  0  0  0  0  0  0
   -7.2655  -14.3007    5.4406 H   0  0  0  0  0  0  0  0  0  0  0  0
   -7.0802  -16.2961    3.3520 H   0  0  0  0  0  0  0  0  0  0  0  0
   -8.1872  -16.2987    4.5524 H   0  0  0  0  0  0  0  0  0  0  0  0
   -6.4071  -17.8393    5.0121 H   0  0  0  0  0  0  0  0  0  0  0  0
   -6.4908  -16.6771    6.1562 H   0  0  0  0  0  0  0  0  0  0  0  0
   -4.5962  -16.7311    3.9732 H   0  0  0  0  0  0  0  0  0  0  0  0
   -4.2281  -16.9766    5.5451 H   0  0  0  0  0  0  0  0  0  0  0  0
   -3.6762  -14.7402    4.8568 H   0  0  0  0  0  0  0  0  0  0  0  0
   -4.7821  -14.7364    6.0581 H   0  0  0  0  0  0  0  0  0  0  0  0
   -5.4503  -13.1984    4.3868 H   0  0  0  0  0  0  0  0  0  0  0  0
   -5.3760  -14.3706    3.2525 H   0  0  0  0  0  0  0  0  0  0  0  0
  -10.5331  -15.6432    5.3418 H   0  0  0  0  0  0  0  0  0  0  0  0
  -11.0747  -13.6716    7.3199 H   0  0  0  0  0  0  0  0  0  0  0  0
  -11.1745  -15.3292    8.8320 H   0  0  0  0  0  0  0  0  0  0  0  0
  -11.4374  -17.6492    8.3643 H   0  0  0  0  0  0  0  0  0  0  0  0
  -12.7312  -16.8040    7.8369 H   0  0  0  0  0  0  0  0  0  0  0  0
  -11.5977  -17.3087    6.7753 H   0  0  0  0  0  0  0  0  0  0  0  0
   -9.2429  -16.6815    8.4843 H   0  0  0  0  0  0  0  0  0  0  0  0
   -9.2305  -16.2486    6.9098 H   0  0  0  0  0  0  0  0  0  0  0  0
   -8.9522  -15.1299    8.0664 H   0  0  0  0  0  0  0  0  0  0  0  0
  -13.1540  -13.8585    8.7093 H   0  0  0  0  0  0  0  0  0  0  0  0
  -15.4078  -13.4458    7.0272 H   0  0  0  0  0  0  0  0  0  0  0  0
  -15.3503  -13.2428    8.6465 H   0  0  0  0  0  0  0  0  0  0  0  0
  -15.5072  -15.6018    8.9524 H   0  0  0  0  0  0  0  0  0  0  0  0
  -15.5504  -15.8120    7.3336 H   0  0  0  0  0  0  0  0  0  0  0  0
  -18.9018  -16.0345    8.2762 H   0  0  0  0  0  0  0  0  0  0  0  0
  -17.7017  -16.8494    7.5265 H   0  0  0  0  0  0  0  0  0  0  0  0
  -17.6583  -16.6386    9.1453 H   0  0  0  0  0  0  0  0  0  0  0  0
  1  2  2  0  0  0  0
  1  6  1  0  0  0  0
  1 41  1  0  0  0  0
  2  3  1  0  0  0  0
  2 42  1  0  0  0  0
  3  4  2  0  0  0  0
  3 43  1  0  0  0  0
  4  5  1  0  0  0  0
  4  8  1  0  0  0  0
  5  6  2  0  0  0  0
  5 44  1  0  0  0  0
  6  7  1  0  0  0  0
  8  9  1  0  0  0  0
  8 10  1  0  0  0  0
  9 11  1  0  0  0  0
  9 45  1  0  0  0  0
  9 46  1  0  0  0  0
 10 47  1  0  0  0  0
 10 48  1  0  0  0  0
 10 49  1  0  0  0  0
 11 12  2  0  0  0  0
 11 15  1  0  0  0  0
 12 13  1  0  0  0  0
 12 50  1  0  0  0  0
 13 14  2  0  0  0  0
 13 51  1  0  0  0  0
 14 15  1  0  0  0  0
 14 16  1  0  0  0  0
 16 17  1  0  0  0  0
 16 18  2  0  0  0  0
 17 19  1  0  0  0  0
 17 52  1  0  0  0  0
 19 20  1  0  0  0  0
 19 21  1  0  0  0  0
 19 53  1  6  0  0  0
 20 28  2  0  0  0  0
 20 29  1  0  0  0  0
 21 22  1  0  0  0  0
 21 54  1  0  0  0  0
 21 55  1  0  0  0  0
 22 23  1  0  0  0  0
 22 27  1  0  0  0  0
 22 56  1  0  0  0  0
 23 24  1  0  0  0  0
 23 57  1  0  0  0  0
 23 58  1  0  0  0  0
 24 25  1  0  0  0  0
 24 59  1  0  0  0  0
 24 60  1  0  0  0  0
 25 26  1  0  0  0  0
 25 61  1  0  0  0  0
 25 62  1  0  0  0  0
 26 27  1  0  0  0  0
 26 63  1  0  0  0  0
 26 64  1  0  0  0  0
 27 65  1  0  0  0  0
 27 66  1  0  0  0  0
 29 30  1  0  0  0  0
 29 67  1  0  0  0  0
 30 31  1  0  0  0  0
 30 32  1  0  0  0  0
 30 68  1  1  0  0  0
 31 35  1  0  0  0  0
 31 36  2  0  0  0  0
 32 33  1  0  0  0  0
 32 34  1  0  0  0  0
 32 69  1  0  0  0  0
 33 70  1  0  0  0  0
 33 71  1  0  0  0  0
 33 72  1  0  0  0  0
 34 73  1  0  0  0  0
 34 74  1  0  0  0  0
 34 75  1  0  0  0  0
 35 37  1  0  0  0  0
 35 76  1  0  0  0  0
 37 38  1  0  0  0  0
 37 77  1  0  0  0  0
 37 78  1  0  0  0  0
 38 39  1  0  0  0  0
 38 79  1  0  0  0  0
 38 80  1  0  0  0  0
 39 40  1  0  0  0  0
 40 81  1  0  0  0  0
 40 82  1  0  0  0  0
 40 83  1  0  0  0  0
M  END
>  <BIOSOLVEIT.HYDE_ESTIMATED_AFFINITY_LOWER_BOUNDARY [nM]>
7492534.822436

>  <BIOSOLVEIT.HYDE_ESTIMATED_AFFINITY_UPPER_BOUNDARY [nM]>
744427633.980840

>  <BIOSOLVEIT.HYDE_LIGAND_EFFICIENCY range: ++, +, 0, -, -->
--

>  <BIOSOLVEIT.HYDE_LIGAND_LIPOPHILIC_EFFICIENCY range: ++, +, 0, -, -->
--

>  <BIOSOLVEIT.INTER_CLASH range: red, yellow, green>
green

>  <BIOSOLVEIT.INTRA_CLASH range: red, yellow, green>
green

>  <BIOSOLVEIT.LOGP>
5.0101

>  <BIOSOLVEIT.MOLECULAR WEIGHT>
591.212

>  <BIOSOLVEIT.MOLECULE_CHECKSUM>
LTYuNDMxNjQ7MC4xNjA3OTE=

>  <BIOSOLVEIT.TORSION_QUALITY range: red, yellow, green, not rotatable>
yellow

>  <BIOSOLVEIT.TPSA>
99.77

$$$$
