G9.sdf
 OpenBabel12172121453D
Hydescorer 1.1.2 b8048283
 62 64  0  0  0  0  0  0  0  0999 V2000
   -1.6176  -13.4759   -6.6988 C   0  0  0  0  0  0  0  0  0  0  0  0
   -1.0846  -12.6390   -5.7276 C   0  0  0  0  0  0  0  0  0  0  0  0
   -1.7862  -12.2536   -4.6613 N   0  0  0  0  0  0  0  0  0  0  0  0
   -3.0406  -12.6916   -4.5212 C   0  0  0  0  0  0  0  0  0  0  0  0
   -3.6501  -13.5360   -5.4438 C   0  0  0  0  0  0  0  0  0  0  0  0
   -2.9258  -13.9318   -6.5558 C   0  0  0  0  0  0  0  0  0  0  0  0
   -3.6294  -14.9747   -7.7487 Cl  0  0  0  0  0  0  0  0  0  0  0  0
   -3.7492  -12.2903   -3.4062 N   0  0  0  0  0  0  0  0  0  0  0  0
   -4.0079  -10.8689   -3.1802 C   0  0  0  0  0  0  0  0  0  0  0  0
   -5.4613  -10.8287   -2.7614 C   0  0  0  0  0  0  0  0  0  0  0  0
   -5.9593  -10.8184   -1.4862 C   0  0  0  0  0  0  0  0  0  0  0  0
   -7.3569  -10.7542   -1.4421 C   0  0  0  0  0  0  0  0  0  0  0  0
   -7.9416  -10.7096   -2.6913 C   0  0  0  0  0  0  0  0  0  0  0  0
   -6.7270  -10.7489   -3.9319 S   0  0  0  0  0  0  0  0  0  0  0  0
   -9.3534  -10.6329   -3.0323 C   0  0  0  0  0  0  0  0  0  0  0  0
  -10.2268  -10.1953   -2.0707 N   0  0  0  0  0  0  0  0  0  0  0  0
  -11.7093  -10.0349   -2.1889 C   0  0  2  0  0  0  0  0  0  0  0  0
  -12.4116  -11.3970   -2.3866 C   0  0  0  0  0  0  0  0  0  0  0  0
  -12.7092  -11.7946   -3.5098 O   0  0  0  0  0  0  0  0  0  0  0  0
  -12.7008  -12.1420   -1.3161 N   0  0  0  0  0  0  0  0  0  0  0  0
  -13.3593  -13.4440   -1.3579 C   0  0  0  0  0  0  0  0  0  0  0  0
   -9.8088  -10.9397   -4.1301 O   0  0  0  0  0  0  0  0  0  0  0  0
  -12.3364  -14.5392   -1.6792 C   0  0  0  0  0  0  0  0  0  0  0  0
  -12.9456  -15.8900   -1.6460 N   0  3  0  0  0  0  0  0  0  0  0  0
   -1.0698  -13.7476   -7.4901 H   0  0  0  0  0  0  0  0  0  0  0  0
   -0.1442  -12.3150   -5.8311 H   0  0  0  0  0  0  0  0  0  0  0  0
   -4.5897  -13.8499   -5.3072 H   0  0  0  0  0  0  0  0  0  0  0  0
   -4.0847  -12.9703   -2.7544 H   0  0  0  0  0  0  0  0  0  0  0  0
   -3.8641  -10.3430   -4.0184 H   0  0  0  0  0  0  0  0  0  0  0  0
   -3.4186  -10.5102   -2.4563 H   0  0  0  0  0  0  0  0  0  0  0  0
   -5.3833  -10.8532   -0.6695 H   0  0  0  0  0  0  0  0  0  0  0  0
   -7.8797  -10.7420   -0.5898 H   0  0  0  0  0  0  0  0  0  0  0  0
   -9.8259   -9.9553   -1.1865 H   0  0  0  0  0  0  0  0  0  0  0  0
  -12.0116   -9.0349   -3.3464 C   0  0  0  0  0  0  0  0  0  0  0  0
  -12.4471  -11.7805   -0.4189 H   0  0  0  0  0  0  0  0  0  0  0  0
  -14.0670  -13.4344   -2.0642 H   0  0  0  0  0  0  0  0  0  0  0  0
  -13.7777  -13.6321   -0.4693 H   0  0  0  0  0  0  0  0  0  0  0  0
  -11.5985  -14.5005   -1.0053 H   0  0  0  0  0  0  0  0  0  0  0  0
  -11.9629  -14.3751   -2.5922 H   0  0  0  0  0  0  0  0  0  0  0  0
  -13.2127   -8.1011   -3.0595 C   0  0  0  0  0  0  0  0  0  0  0  0
  -12.2098   -9.5598   -4.1742 H   0  0  0  0  0  0  0  0  0  0  0  0
  -11.2003   -8.4699   -3.4961 H   0  0  0  0  0  0  0  0  0  0  0  0
  -12.0462   -9.6336   -1.3371 H   0  0  0  0  0  0  0  0  0  0  0  0
  -13.4695   -7.0308   -4.1371 C   0  0  0  0  0  0  0  0  0  0  0  0
  -14.5188   -8.8542   -2.7398 C   0  0  0  0  0  0  0  0  0  0  0  0
  -15.6079   -7.8743   -2.2758 C   0  0  0  0  0  0  0  0  0  0  0  0
  -15.8502   -6.7820   -3.3282 C   0  0  0  0  0  0  0  0  0  0  0  0
  -14.5488   -6.0433   -3.6714 C   0  0  0  0  0  0  0  0  0  0  0  0
  -12.9759   -7.5996   -2.2274 H   0  0  0  0  0  0  0  0  0  0  0  0
  -13.7740   -7.4778   -4.9782 H   0  0  0  0  0  0  0  0  0  0  0  0
  -12.6212   -6.5315   -4.3131 H   0  0  0  0  0  0  0  0  0  0  0  0
  -14.3452   -9.5202   -2.0142 H   0  0  0  0  0  0  0  0  0  0  0  0
  -14.8333   -9.3303   -3.5610 H   0  0  0  0  0  0  0  0  0  0  0  0
  -15.3187   -7.4454   -1.4200 H   0  0  0  0  0  0  0  0  0  0  0  0
  -16.4586   -8.3780   -2.1255 H   0  0  0  0  0  0  0  0  0  0  0  0
  -16.5134   -6.1250   -2.9697 H   0  0  0  0  0  0  0  0  0  0  0  0
  -16.2145   -7.2040   -4.1584 H   0  0  0  0  0  0  0  0  0  0  0  0
  -14.7284   -5.3848   -4.4023 H   0  0  0  0  0  0  0  0  0  0  0  0
  -14.2224   -5.5594   -2.8594 H   0  0  0  0  0  0  0  0  0  0  0  0
  -13.0624  -16.2261   -2.5805 H   0  0  0  0  0  0  0  0  0  0  0  0
  -12.3487  -16.5125   -1.1400 H   0  0  0  0  0  0  0  0  0  0  0  0
  -13.8369  -15.8426   -1.1950 H   0  0  0  0  0  0  0  0  0  0  0  0
  1  2  2  0  0  0  0
  1  6  1  0  0  0  0
  1 25  1  0  0  0  0
  2  3  1  0  0  0  0
  2 26  1  0  0  0  0
  3  4  2  0  0  0  0
  4  5  1  0  0  0  0
  4  8  1  0  0  0  0
  5  6  2  0  0  0  0
  5 27  1  0  0  0  0
  6  7  1  0  0  0  0
  8  9  1  0  0  0  0
  8 28  1  0  0  0  0
  9 10  1  0  0  0  0
  9 29  1  0  0  0  0
  9 30  1  0  0  0  0
 10 11  2  0  0  0  0
 10 14  1  0  0  0  0
 11 12  1  0  0  0  0
 11 31  1  0  0  0  0
 12 13  2  0  0  0  0
 12 32  1  0  0  0  0
 13 14  1  0  0  0  0
 13 15  1  0  0  0  0
 15 16  1  0  0  0  0
 15 22  2  0  0  0  0
 16 17  1  0  0  0  0
 16 33  1  0  0  0  0
 17 18  1  0  0  0  0
 17 34  1  0  0  0  0
 17 43  1  1  0  0  0
 18 19  2  0  0  0  0
 18 20  1  0  0  0  0
 20 21  1  0  0  0  0
 20 35  1  0  0  0  0
 21 23  1  0  0  0  0
 21 36  1  0  0  0  0
 21 37  1  0  0  0  0
 23 24  1  0  0  0  0
 23 38  1  0  0  0  0
 23 39  1  0  0  0  0
 24 60  1  0  0  0  0
 24 61  1  0  0  0  0
 24 62  1  0  0  0  0
 34 40  1  0  0  0  0
 34 41  1  0  0  0  0
 34 42  1  0  0  0  0
 40 44  1  0  0  0  0
 40 45  1  0  0  0  0
 40 49  1  0  0  0  0
 44 48  1  0  0  0  0
 44 50  1  0  0  0  0
 44 51  1  0  0  0  0
 45 46  1  0  0  0  0
 45 52  1  0  0  0  0
 45 53  1  0  0  0  0
 46 47  1  0  0  0  0
 46 54  1  0  0  0  0
 46 55  1  0  0  0  0
 47 48  1  0  0  0  0
 47 56  1  0  0  0  0
 47 57  1  0  0  0  0
 48 58  1  0  0  0  0
 48 59  1  0  0  0  0
M  CHG  1  24   1
M  END
>  <BIOSOLVEIT.HYDE_ESTIMATED_AFFINITY_LOWER_BOUNDARY [nM]>
3055799.677267

>  <BIOSOLVEIT.HYDE_ESTIMATED_AFFINITY_UPPER_BOUNDARY [nM]>
303611765.254049

>  <BIOSOLVEIT.HYDE_LIGAND_EFFICIENCY range: ++, +, 0, -, -->
--

>  <BIOSOLVEIT.HYDE_LIGAND_LIPOPHILIC_EFFICIENCY range: ++, +, 0, -, -->
--

>  <BIOSOLVEIT.INTER_CLASH range: red, yellow, green>
green

>  <BIOSOLVEIT.INTRA_CLASH range: red, yellow, green>
green

>  <BIOSOLVEIT.LOGP>
2.8355

>  <BIOSOLVEIT.MOLECULAR WEIGHT>
465.038

>  <BIOSOLVEIT.MOLECULE_CHECKSUM>
LTguNjU0OTM7MC4yNzkxOTE=

>  <BIOSOLVEIT.TORSION_QUALITY range: red, yellow, green, not rotatable>
red

>  <BIOSOLVEIT.TPSA>
110.76

$$$$
