Z28053011.****
 OpenBabel12172121453D
Hydescorer 1.1.2 b8048283
 44 47  0  0  0  0  0  0  0  0999 V2000
   -2.0471  -13.4730    3.9901 C   0  0  0  0  0  0  0  0  0  0  0  0
   -2.1765  -14.3261    2.8975 C   0  0  0  0  0  0  0  0  0  0  0  0
   -3.4211  -14.8534    2.5719 C   0  0  0  0  0  0  0  0  0  0  0  0
   -4.5575  -14.5423    3.3294 C   0  0  0  0  0  0  0  0  0  0  0  0
   -4.4116  -13.6652    4.4159 C   0  0  0  0  0  0  0  0  0  0  0  0
   -3.1672  -13.1402    4.7484 C   0  0  0  0  0  0  0  0  0  0  0  0
   -0.4943  -12.8269    4.4045 Cl  0  0  0  0  0  0  0  0  0  0  0  0
   -5.9056  -15.1897    2.9263 C   0  0  0  0  0  0  0  0  0  0  0  0
   -6.7290  -14.1975    2.0580 C   0  0  0  0  0  0  0  0  0  0  0  0
   -6.6704  -15.5594    4.2162 C   0  0  0  0  0  0  0  0  0  0  0  0
   -5.9817  -16.8517    4.6582 C   0  0  0  0  0  0  0  0  0  0  0  0
   -5.6545  -17.5889    3.3554 C   0  0  0  0  0  0  0  0  0  0  0  0
   -5.7809  -16.5631    2.2150 C   0  0  0  0  0  0  0  0  0  0  0  0
   -7.7295  -14.5808    1.2061 N   0  0  0  0  0  0  0  0  0  0  0  0
   -6.5420  -12.9982    2.0757 O   0  0  0  0  0  0  0  0  0  0  0  0
   -8.5101  -13.7419    0.3959 C   0  0  0  0  0  0  0  0  0  0  0  0
   -7.8928  -12.7611   -0.3726 C   0  0  0  0  0  0  0  0  0  0  0  0
   -8.6847  -12.0041   -1.2349 C   0  0  0  0  0  0  0  0  0  0  0  0
  -10.0720  -12.1761   -1.2944 C   0  0  0  0  0  0  0  0  0  0  0  0
  -10.6728  -13.1350   -0.4795 C   0  0  0  0  0  0  0  0  0  0  0  0
   -9.8949  -13.9221    0.3684 C   0  0  0  0  0  0  0  0  0  0  0  0
   -8.0534  -11.0437   -2.1041 N   0  0  0  0  0  0  0  0  0  0  0  0
   -8.4962  -10.7382   -3.3133 N   0  0  0  0  0  0  0  0  0  0  0  0
   -7.6563   -9.8587   -3.7766 N   0  0  0  0  0  0  0  0  0  0  0  0
   -6.6810   -9.6053   -2.8611 N   0  0  0  0  0  0  0  0  0  0  0  0
   -6.9548  -10.3458   -1.8540 C   0  0  0  0  0  0  0  0  0  0  0  0
   -1.3747  -14.5593    2.3472 H   0  0  0  0  0  0  0  0  0  0  0  0
   -3.5063  -15.4643    1.7848 H   0  0  0  0  0  0  0  0  0  0  0  0
   -5.2135  -13.4144    4.9582 H   0  0  0  0  0  0  0  0  0  0  0  0
   -3.0767  -12.5244    5.5311 H   0  0  0  0  0  0  0  0  0  0  0  0
   -7.6404  -15.7139    4.0283 H   0  0  0  0  0  0  0  0  0  0  0  0
   -6.5749  -14.8449    4.9092 H   0  0  0  0  0  0  0  0  0  0  0  0
   -6.5939  -17.3996    5.2283 H   0  0  0  0  0  0  0  0  0  0  0  0
   -5.1452  -16.6484    5.1671 H   0  0  0  0  0  0  0  0  0  0  0  0
   -6.2992  -18.3403    3.2146 H   0  0  0  0  0  0  0  0  0  0  0  0
   -4.7230  -17.9509    3.3901 H   0  0  0  0  0  0  0  0  0  0  0  0
   -4.9695  -16.5846    1.6309 H   0  0  0  0  0  0  0  0  0  0  0  0
   -6.5940  -16.7488    1.6632 H   0  0  0  0  0  0  0  0  0  0  0  0
   -7.9245  -15.5602    1.1557 H   0  0  0  0  0  0  0  0  0  0  0  0
   -6.9074  -12.6031   -0.3086 H   0  0  0  0  0  0  0  0  0  0  0  0
  -10.6254  -11.6186   -1.9132 H   0  0  0  0  0  0  0  0  0  0  0  0
  -11.6649  -13.2586   -0.5035 H   0  0  0  0  0  0  0  0  0  0  0  0
  -10.3250  -14.6105    0.9525 H   0  0  0  0  0  0  0  0  0  0  0  0
   -6.4222  -10.3908   -1.0088 H   0  0  0  0  0  0  0  0  0  0  0  0
  1  2  2  0  0  0  0
  1  6  1  0  0  0  0
  1  7  1  0  0  0  0
  2  3  1  0  0  0  0
  2 27  1  0  0  0  0
  3  4  2  0  0  0  0
  3 28  1  0  0  0  0
  4  5  1  0  0  0  0
  4  8  1  0  0  0  0
  5  6  2  0  0  0  0
  5 29  1  0  0  0  0
  6 30  1  0  0  0  0
  8  9  1  0  0  0  0
  8 10  1  0  0  0  0
  8 13  1  0  0  0  0
  9 14  1  0  0  0  0
  9 15  2  0  0  0  0
 10 11  1  0  0  0  0
 10 31  1  0  0  0  0
 10 32  1  0  0  0  0
 11 12  1  0  0  0  0
 11 33  1  0  0  0  0
 11 34  1  0  0  0  0
 12 13  1  0  0  0  0
 12 35  1  0  0  0  0
 12 36  1  0  0  0  0
 13 37  1  0  0  0  0
 13 38  1  0  0  0  0
 14 16  1  0  0  0  0
 14 39  1  0  0  0  0
 16 17  2  0  0  0  0
 16 21  1  0  0  0  0
 17 18  1  0  0  0  0
 17 40  1  0  0  0  0
 18 19  2  0  0  0  0
 18 22  1  0  0  0  0
 19 20  1  0  0  0  0
 19 41  1  0  0  0  0
 20 21  2  0  0  0  0
 20 42  1  0  0  0  0
 21 43  1  0  0  0  0
 22 23  1  0  0  0  0
 22 26  1  0  0  0  0
 23 24  2  0  0  0  0
 24 25  1  0  0  0  0
 25 26  2  0  0  0  0
 26 44  1  0  0  0  0
M  END
>  <BIOSOLVEIT.HYDE_ESTIMATED_AFFINITY_LOWER_BOUNDARY [nM]>
4612844416088581.000000

>  <BIOSOLVEIT.HYDE_ESTIMATED_AFFINITY_UPPER_BOUNDARY [nM]>
458313366033029696.000000

>  <BIOSOLVEIT.HYDE_LIGAND_EFFICIENCY range: ++, +, 0, -, -->
--

>  <BIOSOLVEIT.HYDE_LIGAND_LIPOPHILIC_EFFICIENCY range: ++, +, 0, -, -->
--

>  <BIOSOLVEIT.INTER_CLASH range: red, yellow, green>
green

>  <BIOSOLVEIT.INTRA_CLASH range: red, yellow, green>
yellow

>  <BIOSOLVEIT.LOGP>
3.7662

>  <BIOSOLVEIT.MOLECULAR WEIGHT>
367.838

>  <BIOSOLVEIT.MOLECULE_CHECKSUM>
NDMuNzM4OzA=

>  <BIOSOLVEIT.TORSION_QUALITY range: red, yellow, green, not rotatable>
yellow

>  <BIOSOLVEIT.TPSA>
72.7

$$$$
