Z1273128799.****
 OpenBabel12172121453D
Hydescorer 1.1.2 b8048283
 32 33  0  0  0  0  0  0  0  0999 V2000
   -0.3020  -15.2357    3.1533 C   0  0  0  0  0  0  0  0  0  0  0  0
   -1.0470  -14.0791    3.3736 C   0  0  0  0  0  0  0  0  0  0  0  0
   -2.3947  -14.0222    3.0172 C   0  0  0  0  0  0  0  0  0  0  0  0
   -2.9780  -15.1604    2.4400 C   0  0  0  0  0  0  0  0  0  0  0  0
   -2.2447  -16.3183    2.2039 C   0  0  0  0  0  0  0  0  0  0  0  0
   -0.9010  -16.3528    2.5662 C   0  0  0  0  0  0  0  0  0  0  0  0
    0.0309  -17.7870    2.2923 Cl  0  0  0  0  0  0  0  0  0  0  0  0
   -3.1909  -12.7505    3.2565 C   0  0  0  0  0  0  0  0  0  0  0  0
   -4.3391  -15.1542    2.0821 N   0  0  0  0  0  0  0  0  0  0  0  0
   -5.3408  -15.7684    2.7653 C   0  0  0  0  0  0  0  0  0  0  0  0
   -6.7818  -15.7051    2.2997 C   0  0  0  0  0  0  0  0  0  0  0  0
   -5.0064  -16.3567    3.7666 O   0  0  0  0  0  0  0  0  0  0  0  0
   -7.6109  -15.1795    3.4901 C   0  0  0  0  0  0  0  0  0  0  0  0
   -9.0898  -14.8493    3.1380 C   0  0  0  0  0  0  0  0  0  0  0  0
   -8.9258  -13.5954    4.0474 C   0  0  0  0  0  0  0  0  0  0  0  0
   -7.3967  -13.6638    3.7555 C   0  0  0  0  0  0  0  0  0  0  0  0
    0.6624  -15.2662    3.4157 H   0  0  0  0  0  0  0  0  0  0  0  0
   -0.6113  -13.2817    3.7914 H   0  0  0  0  0  0  0  0  0  0  0  0
   -2.6764  -17.1144    1.7800 H   0  0  0  0  0  0  0  0  0  0  0  0
   -4.1319  -12.8829    2.9451 H   0  0  0  0  0  0  0  0  0  0  0  0
   -3.1901  -12.5355    4.2331 H   0  0  0  0  0  0  0  0  0  0  0  0
   -2.7748  -11.9962    2.7487 H   0  0  0  0  0  0  0  0  0  0  0  0
   -4.5910  -14.6546    1.2533 H   0  0  0  0  0  0  0  0  0  0  0  0
   -7.0986  -16.6159    2.0348 H   0  0  0  0  0  0  0  0  0  0  0  0
   -6.8651  -15.0836    1.5208 H   0  0  0  0  0  0  0  0  0  0  0  0
   -7.5178  -15.7403    4.3128 H   0  0  0  0  0  0  0  0  0  0  0  0
   -9.7587  -15.5188    3.4613 H   0  0  0  0  0  0  0  0  0  0  0  0
   -9.2578  -14.6497    2.1726 H   0  0  0  0  0  0  0  0  0  0  0  0
   -9.1739  -13.7401    5.0053 H   0  0  0  0  0  0  0  0  0  0  0  0
   -9.3785  -12.7715    3.7066 H   0  0  0  0  0  0  0  0  0  0  0  0
   -7.0964  -13.1362    2.9609 H   0  0  0  0  0  0  0  0  0  0  0  0
   -6.8096  -13.4527    4.5370 H   0  0  0  0  0  0  0  0  0  0  0  0
  1  2  2  0  0  0  0
  1  6  1  0  0  0  0
  1 17  1  0  0  0  0
  2  3  1  0  0  0  0
  2 18  1  0  0  0  0
  3  4  2  0  0  0  0
  3  8  1  0  0  0  0
  4  5  1  0  0  0  0
  4  9  1  0  0  0  0
  5  6  2  0  0  0  0
  5 19  1  0  0  0  0
  6  7  1  0  0  0  0
  8 20  1  0  0  0  0
  8 21  1  0  0  0  0
  8 22  1  0  0  0  0
  9 10  1  0  0  0  0
  9 23  1  0  0  0  0
 10 11  1  0  0  0  0
 10 12  2  0  0  0  0
 11 13  1  0  0  0  0
 11 24  1  0  0  0  0
 11 25  1  0  0  0  0
 13 14  1  0  0  0  0
 13 16  1  0  0  0  0
 13 26  1  0  0  0  0
 14 15  1  0  0  0  0
 14 27  1  0  0  0  0
 14 28  1  0  0  0  0
 15 16  1  0  0  0  0
 15 29  1  0  0  0  0
 15 30  1  0  0  0  0
 16 31  1  0  0  0  0
 16 32  1  0  0  0  0
M  END
>  <BIOSOLVEIT.HYDE_ESTIMATED_AFFINITY_LOWER_BOUNDARY [nM]>
27899787.922754

>  <BIOSOLVEIT.HYDE_ESTIMATED_AFFINITY_UPPER_BOUNDARY [nM]>
2772008886.726700

>  <BIOSOLVEIT.HYDE_LIGAND_EFFICIENCY range: ++, +, 0, -, -->
--

>  <BIOSOLVEIT.HYDE_LIGAND_LIPOPHILIC_EFFICIENCY range: ++, +, 0, -, -->
--

>  <BIOSOLVEIT.INTER_CLASH range: red, yellow, green>
green

>  <BIOSOLVEIT.INTRA_CLASH range: red, yellow, green>
green

>  <BIOSOLVEIT.LOGP>
3.77712

>  <BIOSOLVEIT.MOLECULAR WEIGHT>
237.728

>  <BIOSOLVEIT.MOLECULE_CHECKSUM>
LTMuMTcyNTI7MC4xOTgyODM=

>  <BIOSOLVEIT.TORSION_QUALITY range: red, yellow, green, not rotatable>
yellow

>  <BIOSOLVEIT.TPSA>
29.1

$$$$
