Z52832973.****
 OpenBabel12172121453D
Hydescorer 1.1.2 b8048283
 37 38  0  0  0  0  0  0  0  0999 V2000
   -4.6821  -10.8096   -5.0758 C   0  0  0  0  0  0  0  0  0  0  0  0
   -4.0988  -11.1607   -3.8584 C   0  0  0  0  0  0  0  0  0  0  0  0
   -4.8580  -11.1135   -2.6922 C   0  0  0  0  0  0  0  0  0  0  0  0
   -6.1959  -10.7186   -2.7448 C   0  0  0  0  0  0  0  0  0  0  0  0
   -6.7844  -10.3864   -3.9687 C   0  0  0  0  0  0  0  0  0  0  0  0
   -6.0211  -10.4286   -5.1287 C   0  0  0  0  0  0  0  0  0  0  0  0
   -2.6437  -11.5733   -3.8063 C   0  0  0  0  0  0  0  0  0  0  0  0
   -6.9130  -10.6790   -1.5438 N   0  0  0  0  0  0  0  0  0  0  0  0
   -8.3033  -10.1245   -1.5666 C   0  0  0  0  0  0  0  0  0  0  0  0
   -9.2943  -11.2740   -1.7378 C   0  0  0  0  0  0  0  0  0  0  0  0
   -9.4360  -12.1174   -0.6654 N   0  0  0  0  0  0  0  0  0  0  0  0
  -10.2725  -13.2664   -0.5215 C   0  0  0  0  0  0  0  0  0  0  0  0
   -9.8525  -14.2741    0.3618 C   0  0  0  0  0  0  0  0  0  0  0  0
  -10.6381  -15.4120    0.5272 C   0  0  0  0  0  0  0  0  0  0  0  0
  -11.8381  -15.5425   -0.1696 C   0  0  0  0  0  0  0  0  0  0  0  0
  -12.2789  -14.5330   -1.0370 C   0  0  0  0  0  0  0  0  0  0  0  0
  -11.4827  -13.3923   -1.2075 C   0  0  0  0  0  0  0  0  0  0  0  0
   -8.3677  -14.1297    1.2515 Cl  0  0  0  0  0  0  0  0  0  0  0  0
   -9.9159  -11.4535   -2.7656 O   0  0  0  0  0  0  0  0  0  0  0  0
  -13.5986  -14.6745   -1.8125 C   0  0  0  0  0  0  0  0  0  0  0  0
  -13.3642  -15.1020   -3.0690 F   0  0  0  0  0  0  0  0  0  0  0  0
  -14.4055  -15.5625   -1.2032 F   0  0  0  0  0  0  0  0  0  0  0  0
  -14.2135  -13.4848   -1.8665 F   0  0  0  0  0  0  0  0  0  0  0  0
   -4.1371  -10.8316   -5.9140 H   0  0  0  0  0  0  0  0  0  0  0  0
   -4.4446  -11.3627   -1.8163 H   0  0  0  0  0  0  0  0  0  0  0  0
   -7.7476  -10.1204   -4.0089 H   0  0  0  0  0  0  0  0  0  0  0  0
   -6.4347  -10.1843   -6.0057 H   0  0  0  0  0  0  0  0  0  0  0  0
   -2.3921  -11.7896   -2.8629 H   0  0  0  0  0  0  0  0  0  0  0  0
   -2.5050  -12.3795   -4.3815 H   0  0  0  0  0  0  0  0  0  0  0  0
   -2.0725  -10.8235   -4.1400 H   0  0  0  0  0  0  0  0  0  0  0  0
   -6.5074  -11.0124   -0.6928 H   0  0  0  0  0  0  0  0  0  0  0  0
   -8.3968   -9.4849   -2.3295 H   0  0  0  0  0  0  0  0  0  0  0  0
   -8.4882   -9.6477   -0.7072 H   0  0  0  0  0  0  0  0  0  0  0  0
   -8.8724  -11.8960    0.1304 H   0  0  0  0  0  0  0  0  0  0  0  0
  -10.3405  -16.1376    1.1477 H   0  0  0  0  0  0  0  0  0  0  0  0
  -12.3917  -16.3666   -0.0494 H   0  0  0  0  0  0  0  0  0  0  0  0
  -11.7828  -12.6642   -1.8238 H   0  0  0  0  0  0  0  0  0  0  0  0
  1  2  2  0  0  0  0
  1  6  1  0  0  0  0
  1 24  1  0  0  0  0
  2  3  1  0  0  0  0
  2  7  1  0  0  0  0
  3  4  2  0  0  0  0
  3 25  1  0  0  0  0
  4  5  1  0  0  0  0
  4  8  1  0  0  0  0
  5  6  2  0  0  0  0
  5 26  1  0  0  0  0
  6 27  1  0  0  0  0
  7 28  1  0  0  0  0
  7 29  1  0  0  0  0
  7 30  1  0  0  0  0
  8  9  1  0  0  0  0
  8 31  1  0  0  0  0
  9 10  1  0  0  0  0
  9 32  1  0  0  0  0
  9 33  1  0  0  0  0
 10 11  1  0  0  0  0
 10 19  2  0  0  0  0
 11 12  1  0  0  0  0
 11 34  1  0  0  0  0
 12 13  2  0  0  0  0
 12 17  1  0  0  0  0
 13 14  1  0  0  0  0
 13 18  1  0  0  0  0
 14 15  2  0  0  0  0
 14 35  1  0  0  0  0
 15 16  1  0  0  0  0
 15 36  1  0  0  0  0
 16 17  2  0  0  0  0
 16 20  1  0  0  0  0
 17 37  1  0  0  0  0
 20 21  1  0  0  0  0
 20 22  1  0  0  0  0
 20 23  1  0  0  0  0
M  END
>  <BIOSOLVEIT.HYDE_ESTIMATED_AFFINITY_LOWER_BOUNDARY [nM]>
1582102.032165

>  <BIOSOLVEIT.HYDE_ESTIMATED_AFFINITY_UPPER_BOUNDARY [nM]>
157191191.023141

>  <BIOSOLVEIT.HYDE_LIGAND_EFFICIENCY range: ++, +, 0, -, -->
--

>  <BIOSOLVEIT.HYDE_LIGAND_LIPOPHILIC_EFFICIENCY range: ++, +, 0, -, -->
--

>  <BIOSOLVEIT.INTER_CLASH range: red, yellow, green>
green

>  <BIOSOLVEIT.INTRA_CLASH range: red, yellow, green>
green

>  <BIOSOLVEIT.LOGP>
4.71782

>  <BIOSOLVEIT.MOLECULAR WEIGHT>
342.747

>  <BIOSOLVEIT.MOLECULE_CHECKSUM>
LTEwLjI4Njg7MC40NDcyNTI=

>  <BIOSOLVEIT.TORSION_QUALITY range: red, yellow, green, not rotatable>
green

>  <BIOSOLVEIT.TPSA>
41.13

$$$$
