PV-001794469965.****
 OpenBabel12172121453D
Hydescorer 1.1.2 b8048283
 40 42  0  0  0  0  0  0  0  0999 V2000
   -9.4428  -13.8234    4.7672 C   0  0  0  0  0  0  0  0  0  0  0  0
   -8.1856  -13.4506    4.2858 C   0  0  0  0  0  0  0  0  0  0  0  0
   -7.8581  -13.6296    2.9410 C   0  0  0  0  0  0  0  0  0  0  0  0
   -8.8184  -14.1933    2.1022 C   0  0  0  0  0  0  0  0  0  0  0  0
  -10.0748  -14.5670    2.5563 C   0  0  0  0  0  0  0  0  0  0  0  0
  -10.3870  -14.3767    3.8988 C   0  0  0  0  0  0  0  0  0  0  0  0
   -9.7911  -13.6167    6.2256 C   0  0  0  0  0  0  0  0  0  0  0  0
   -8.5337  -14.3832    0.7908 F   0  0  0  0  0  0  0  0  0  0  0  0
   -6.4996  -13.1927    2.4064 C   0  0  0  0  0  0  0  0  0  0  0  0
   -5.4351  -14.0494    3.0666 C   0  0  0  0  0  0  0  0  0  0  0  0
   -5.4283  -14.2524    4.2642 O   0  0  0  0  0  0  0  0  0  0  0  0
   -4.4350  -14.5576    2.2715 N   0  0  0  0  0  0  0  0  0  0  0  0
   -3.3606  -15.3705    2.6909 C   0  0  0  0  0  0  0  0  0  0  0  0
   -2.3563  -14.8609    3.5121 C   0  0  0  0  0  0  0  0  0  0  0  0
   -1.3010  -15.6999    3.8632 C   0  0  0  0  0  0  0  0  0  0  0  0
   -1.2573  -17.0362    3.4559 C   0  0  0  0  0  0  0  0  0  0  0  0
   -2.2881  -17.5339    2.6608 C   0  0  0  0  0  0  0  0  0  0  0  0
   -3.3399  -16.7039    2.2746 C   0  0  0  0  0  0  0  0  0  0  0  0
   -0.2226  -15.1738    4.6585 N   0  0  0  0  0  0  0  0  0  0  0  0
    0.4961  -14.0724    4.4236 C   0  0  0  0  0  0  0  0  0  0  0  0
    1.3700  -13.9503    5.3521 N   0  0  0  0  0  0  0  0  0  0  0  0
    1.1909  -15.0126    6.1840 N   0  0  0  0  0  0  0  0  0  0  0  0
    0.2187  -15.7631    5.7584 N   0  0  0  0  0  0  0  0  0  0  0  0
    0.2822  -13.1473    3.2401 C   0  0  0  0  0  0  0  0  0  0  0  0
   -7.5142  -13.0518    4.9104 H   0  0  0  0  0  0  0  0  0  0  0  0
  -10.7442  -14.9661    1.9298 H   0  0  0  0  0  0  0  0  0  0  0  0
  -11.2893  -14.6365    4.2427 H   0  0  0  0  0  0  0  0  0  0  0  0
  -10.7232  -13.9371    6.3944 H   0  0  0  0  0  0  0  0  0  0  0  0
   -9.1527  -14.1324    6.7970 H   0  0  0  0  0  0  0  0  0  0  0  0
   -9.7274  -12.6440    6.4489 H   0  0  0  0  0  0  0  0  0  0  0  0
   -6.3432  -12.2294    2.6250 H   0  0  0  0  0  0  0  0  0  0  0  0
   -6.4692  -13.3186    1.4148 H   0  0  0  0  0  0  0  0  0  0  0  0
   -4.4730  -14.3283    1.2988 H   0  0  0  0  0  0  0  0  0  0  0  0
   -2.3922  -13.9171    3.8408 H   0  0  0  0  0  0  0  0  0  0  0  0
   -0.4981  -17.6262    3.7307 H   0  0  0  0  0  0  0  0  0  0  0  0
   -2.2734  -18.4894    2.3662 H   0  0  0  0  0  0  0  0  0  0  0  0
   -4.0770  -17.0619    1.7016 H   0  0  0  0  0  0  0  0  0  0  0  0
    0.9402  -12.3954    3.2815 H   0  0  0  0  0  0  0  0  0  0  0  0
    0.4126  -13.6578    2.3901 H   0  0  0  0  0  0  0  0  0  0  0  0
   -0.6471  -12.7789    3.2685 H   0  0  0  0  0  0  0  0  0  0  0  0
  1  2  2  0  0  0  0
  1  6  1  0  0  0  0
  1  7  1  0  0  0  0
  2  3  1  0  0  0  0
  2 25  1  0  0  0  0
  3  4  2  0  0  0  0
  3  9  1  0  0  0  0
  4  5  1  0  0  0  0
  4  8  1  0  0  0  0
  5  6  2  0  0  0  0
  5 26  1  0  0  0  0
  6 27  1  0  0  0  0
  7 28  1  0  0  0  0
  7 29  1  0  0  0  0
  7 30  1  0  0  0  0
  9 10  1  0  0  0  0
  9 31  1  0  0  0  0
  9 32  1  0  0  0  0
 10 11  2  0  0  0  0
 10 12  1  0  0  0  0
 12 13  1  0  0  0  0
 12 33  1  0  0  0  0
 13 14  2  0  0  0  0
 13 18  1  0  0  0  0
 14 15  1  0  0  0  0
 14 34  1  0  0  0  0
 15 16  2  0  0  0  0
 15 19  1  0  0  0  0
 16 17  1  0  0  0  0
 16 35  1  0  0  0  0
 17 18  2  0  0  0  0
 17 36  1  0  0  0  0
 18 37  1  0  0  0  0
 19 20  1  0  0  0  0
 19 23  1  0  0  0  0
 20 21  2  0  0  0  0
 20 24  1  0  0  0  0
 21 22  1  0  0  0  0
 22 23  2  0  0  0  0
 24 38  1  0  0  0  0
 24 39  1  0  0  0  0
 24 40  1  0  0  0  0
M  END
>  <BIOSOLVEIT.HYDE_ESTIMATED_AFFINITY_LOWER_BOUNDARY [nM]>
11869022365.592150

>  <BIOSOLVEIT.HYDE_ESTIMATED_AFFINITY_UPPER_BOUNDARY [nM]>
1179257547235.554443

>  <BIOSOLVEIT.HYDE_LIGAND_EFFICIENCY range: ++, +, 0, -, -->
--

>  <BIOSOLVEIT.HYDE_LIGAND_LIPOPHILIC_EFFICIENCY range: ++, +, 0, -, -->
--

>  <BIOSOLVEIT.INTER_CLASH range: red, yellow, green>
green

>  <BIOSOLVEIT.INTRA_CLASH range: red, yellow, green>
green

>  <BIOSOLVEIT.LOGP>
2.59944

>  <BIOSOLVEIT.MOLECULAR WEIGHT>
325.345

>  <BIOSOLVEIT.MOLECULE_CHECKSUM>
MTEuODMyODsw

>  <BIOSOLVEIT.TORSION_QUALITY range: red, yellow, green, not rotatable>
yellow

>  <BIOSOLVEIT.TPSA>
72.7

$$$$
