PV-000117881128.****
 OpenBabel12172121453D
Hydescorer 1.1.2 b8048283
 45 47  0  0  0  0  0  0  0  0999 V2000
   -5.9830  -10.7364   -1.6924 C   0  0  0  0  0  0  0  0  0  0  0  0
   -7.3674  -10.8417   -1.7611 C   0  0  0  0  0  0  0  0  0  0  0  0
   -8.0236  -10.8847   -3.0004 C   0  0  0  0  0  0  0  0  0  0  0  0
   -7.2500  -10.8058   -4.1718 C   0  0  0  0  0  0  0  0  0  0  0  0
   -5.8642  -10.7015   -4.0987 C   0  0  0  0  0  0  0  0  0  0  0  0
   -5.2308  -10.6680   -2.8603 C   0  0  0  0  0  0  0  0  0  0  0  0
   -9.4862  -11.0051   -3.0455 C   0  0  0  0  0  0  0  0  0  0  0  0
  -10.1693  -11.4568   -1.9429 N   0  0  0  0  0  0  0  0  0  0  0  0
  -10.1567  -10.7173   -4.0267 O   0  0  0  0  0  0  0  0  0  0  0  0
  -11.6453  -11.5979   -1.9326 C   0  0  1  0  0  0  0  0  0  0  0  0
  -12.0589  -13.0794   -1.8345 C   0  0  0  0  0  0  0  0  0  0  0  0
  -11.6668  -13.3668   -0.4521 N   0  3  1  0  0  0  0  0  0  0  0  0
  -12.2442  -12.2712    0.3369 C   0  0  0  0  0  0  0  0  0  0  0  0
  -12.1326  -11.0441   -0.5896 C   0  0  0  0  0  0  0  0  0  0  0  0
  -12.2142  -14.6712   -0.0399 C   0  0  0  0  0  0  0  0  0  0  0  0
  -12.3693  -14.6015    1.4935 C   0  0  0  0  0  0  0  0  0  0  0  0
  -13.0510  -15.8458    2.0767 C   0  0  0  0  0  0  0  0  0  0  0  0
  -12.5958  -15.8679    3.5375 C   0  0  0  0  0  0  0  0  0  0  0  0
  -11.2981  -15.0535    3.5930 C   0  0  0  0  0  0  0  0  0  0  0  0
  -10.9887  -14.6648    2.1480 C   0  0  0  0  0  0  0  0  0  0  0  0
   -5.5275  -10.7099   -0.8025 H   0  0  0  0  0  0  0  0  0  0  0  0
   -7.9019  -10.8874   -0.9172 H   0  0  0  0  0  0  0  0  0  0  0  0
   -7.6994  -10.8247   -5.0649 H   0  0  0  0  0  0  0  0  0  0  0  0
   -5.3226  -10.6506   -4.9378 H   0  0  0  0  0  0  0  0  0  0  0  0
   -4.2347  -10.5946   -2.8100 H   0  0  0  0  0  0  0  0  0  0  0  0
   -9.6545  -11.6984   -1.1203 H   0  0  0  0  0  0  0  0  0  0  0  0
  -12.0743  -11.1367   -2.7094 H   0  0  0  0  0  0  0  0  0  0  0  0
  -11.5582  -13.6477   -2.4873 H   0  0  0  0  0  0  0  0  0  0  0  0
  -13.0419  -13.1995   -1.9733 H   0  0  0  0  0  0  0  0  0  0  0  0
  -11.7253  -12.1284    1.1797 H   0  0  0  0  0  0  0  0  0  0  0  0
  -13.2000  -12.4607    0.5619 H   0  0  0  0  0  0  0  0  0  0  0  0
  -13.0234  -10.6020   -0.6949 H   0  0  0  0  0  0  0  0  0  0  0  0
  -11.4752  -10.3861   -0.2223 H   0  0  0  0  0  0  0  0  0  0  0  0
  -11.5861  -15.4072   -0.2925 H   0  0  0  0  0  0  0  0  0  0  0  0
  -13.1022  -14.8278   -0.4724 H   0  0  0  0  0  0  0  0  0  0  0  0
  -12.8540  -13.7700    1.7648 H   0  0  0  0  0  0  0  0  0  0  0  0
  -12.7519  -16.6717    1.5988 H   0  0  0  0  0  0  0  0  0  0  0  0
  -14.0460  -15.7673    2.0157 H   0  0  0  0  0  0  0  0  0  0  0  0
  -12.4281  -16.8079    3.8343 H   0  0  0  0  0  0  0  0  0  0  0  0
  -13.2912  -15.4523    4.1238 H   0  0  0  0  0  0  0  0  0  0  0  0
  -10.5558  -15.6066    3.9715 H   0  0  0  0  0  0  0  0  0  0  0  0
  -11.4240  -14.2355    4.1544 H   0  0  0  0  0  0  0  0  0  0  0  0
  -10.5322  -13.7761    2.1065 H   0  0  0  0  0  0  0  0  0  0  0  0
  -10.4151  -15.3551    1.7068 H   0  0  0  0  0  0  0  0  0  0  0  0
  -10.6704  -13.3669   -0.3676 H   0  0  0  0  0  0  0  0  0  0  0  0
  1  2  2  0  0  0  0
  1  6  1  0  0  0  0
  1 21  1  0  0  0  0
  2  3  1  0  0  0  0
  2 22  1  0  0  0  0
  3  4  2  0  0  0  0
  3  7  1  0  0  0  0
  4  5  1  0  0  0  0
  4 23  1  0  0  0  0
  5  6  2  0  0  0  0
  5 24  1  0  0  0  0
  6 25  1  0  0  0  0
  7  8  1  0  0  0  0
  7  9  2  0  0  0  0
  8 10  1  0  0  0  0
  8 26  1  0  0  0  0
 10 11  1  0  0  0  0
 10 14  1  0  0  0  0
 10 27  1  6  0  0  0
 11 12  1  0  0  0  0
 11 28  1  0  0  0  0
 11 29  1  0  0  0  0
 12 13  1  0  0  0  0
 12 15  1  0  0  0  0
 12 45  1  1  0  0  0
 13 14  1  0  0  0  0
 13 30  1  0  0  0  0
 13 31  1  0  0  0  0
 14 32  1  0  0  0  0
 14 33  1  0  0  0  0
 15 16  1  0  0  0  0
 15 34  1  0  0  0  0
 15 35  1  0  0  0  0
 16 17  1  0  0  0  0
 16 20  1  0  0  0  0
 16 36  1  0  0  0  0
 17 18  1  0  0  0  0
 17 37  1  0  0  0  0
 17 38  1  0  0  0  0
 18 19  1  0  0  0  0
 18 39  1  0  0  0  0
 18 40  1  0  0  0  0
 19 20  1  0  0  0  0
 19 41  1  0  0  0  0
 19 42  1  0  0  0  0
 20 43  1  0  0  0  0
 20 44  1  0  0  0  0
M  CHG  1  12   1
M  END
>  <BIOSOLVEIT.HYDE_ESTIMATED_AFFINITY_LOWER_BOUNDARY [nM]>
3822760.238873

>  <BIOSOLVEIT.HYDE_ESTIMATED_AFFINITY_UPPER_BOUNDARY [nM]>
379813831.679288

>  <BIOSOLVEIT.HYDE_LIGAND_EFFICIENCY range: ++, +, 0, -, -->
--

>  <BIOSOLVEIT.HYDE_LIGAND_LIPOPHILIC_EFFICIENCY range: ++, +, 0, -, -->
--

>  <BIOSOLVEIT.INTER_CLASH range: red, yellow, green>
green

>  <BIOSOLVEIT.INTRA_CLASH range: red, yellow, green>
green

>  <BIOSOLVEIT.LOGP>
1.2638

>  <BIOSOLVEIT.MOLECULAR WEIGHT>
273.398

>  <BIOSOLVEIT.MOLECULE_CHECKSUM>
LTguMDk5ODE7MC40MDQ5OTE=

>  <BIOSOLVEIT.TORSION_QUALITY range: red, yellow, green, not rotatable>
green

>  <BIOSOLVEIT.TPSA>
33.54

$$$$
