PV-000117881128.****
 OpenBabel12172121453D
Hydescorer 1.1.2 b8048283
 45 47  0  0  0  0  0  0  0  0999 V2000
  -10.0012  -10.2089   -2.7312 C   0  0  0  0  0  0  0  0  0  0  0  0
   -9.7118  -11.3915   -2.0604 C   0  0  0  0  0  0  0  0  0  0  0  0
  -10.6707  -12.0057   -1.2410 C   0  0  0  0  0  0  0  0  0  0  0  0
  -11.9275  -11.3906   -1.1032 C   0  0  0  0  0  0  0  0  0  0  0  0
  -12.2137  -10.2072   -1.7771 C   0  0  0  0  0  0  0  0  0  0  0  0
  -11.2521   -9.6172   -2.5913 C   0  0  0  0  0  0  0  0  0  0  0  0
  -10.3426  -13.2591   -0.5506 C   0  0  0  0  0  0  0  0  0  0  0  0
   -9.2856  -13.3007    0.3254 N   0  0  0  0  0  0  0  0  0  0  0  0
  -10.9691  -14.2980   -0.7046 O   0  0  0  0  0  0  0  0  0  0  0  0
   -8.9096  -14.5389    1.0496 C   0  0  1  0  0  0  0  0  0  0  0  0
   -7.4908  -14.4249    1.6409 C   0  0  0  0  0  0  0  0  0  0  0  0
   -7.7325  -13.4505    2.7084 N   0  3  1  0  0  0  0  0  0  0  0  0
   -8.9102  -13.9606    3.4221 C   0  0  0  0  0  0  0  0  0  0  0  0
   -9.7752  -14.5914    2.3130 C   0  0  0  0  0  0  0  0  0  0  0  0
   -6.5571  -13.3801    3.5941 C   0  0  0  0  0  0  0  0  0  0  0  0
   -6.2562  -14.8329    4.0172 C   0  0  0  0  0  0  0  0  0  0  0  0
   -4.7814  -15.2107    3.8294 C   0  0  0  0  0  0  0  0  0  0  0  0
   -4.5714  -16.3777    4.7967 C   0  0  0  0  0  0  0  0  0  0  0  0
   -5.6693  -16.2547    5.8594 C   0  0  0  0  0  0  0  0  0  0  0  0
   -6.4236  -14.9670    5.5313 C   0  0  0  0  0  0  0  0  0  0  0  0
   -9.3096   -9.7833   -3.3147 H   0  0  0  0  0  0  0  0  0  0  0  0
   -8.8091  -11.8096   -2.1632 H   0  0  0  0  0  0  0  0  0  0  0  0
  -12.6216  -11.8071   -0.5159 H   0  0  0  0  0  0  0  0  0  0  0  0
  -13.1122   -9.7802   -1.6760 H   0  0  0  0  0  0  0  0  0  0  0  0
  -11.4603   -8.7677   -3.0759 H   0  0  0  0  0  0  0  0  0  0  0  0
   -8.7521  -12.4690    0.4798 H   0  0  0  0  0  0  0  0  0  0  0  0
   -9.0183  -15.3557    0.4830 H   0  0  0  0  0  0  0  0  0  0  0  0
   -6.8355  -14.0820    0.9678 H   0  0  0  0  0  0  0  0  0  0  0  0
   -7.1693  -15.2996    2.0036 H   0  0  0  0  0  0  0  0  0  0  0  0
   -9.4008  -13.2164    3.8753 H   0  0  0  0  0  0  0  0  0  0  0  0
   -8.6454  -14.6467    4.0996 H   0  0  0  0  0  0  0  0  0  0  0  0
  -10.0040  -15.5375    2.5422 H   0  0  0  0  0  0  0  0  0  0  0  0
  -10.6167  -14.0669    2.1836 H   0  0  0  0  0  0  0  0  0  0  0  0
   -6.7601  -12.8194    4.3969 H   0  0  0  0  0  0  0  0  0  0  0  0
   -5.7761  -12.9917    3.1050 H   0  0  0  0  0  0  0  0  0  0  0  0
   -6.8523  -15.4748    3.5349 H   0  0  0  0  0  0  0  0  0  0  0  0
   -4.1853  -14.4430    4.0640 H   0  0  0  0  0  0  0  0  0  0  0  0
   -4.6044  -15.4942    2.8868 H   0  0  0  0  0  0  0  0  0  0  0  0
   -3.6685  -16.3170    5.2223 H   0  0  0  0  0  0  0  0  0  0  0  0
   -4.6536  -17.2486    4.3123 H   0  0  0  0  0  0  0  0  0  0  0  0
   -5.2656  -16.1989    6.7725 H   0  0  0  0  0  0  0  0  0  0  0  0
   -6.2862  -17.0405    5.8153 H   0  0  0  0  0  0  0  0  0  0  0  0
   -7.3893  -15.0452    5.7788 H   0  0  0  0  0  0  0  0  0  0  0  0
   -6.0200  -14.1851    6.0065 H   0  0  0  0  0  0  0  0  0  0  0  0
   -7.9267  -12.5504    2.3184 H   0  0  0  0  0  0  0  0  0  0  0  0
  1  2  2  0  0  0  0
  1  6  1  0  0  0  0
  1 21  1  0  0  0  0
  2  3  1  0  0  0  0
  2 22  1  0  0  0  0
  3  4  2  0  0  0  0
  3  7  1  0  0  0  0
  4  5  1  0  0  0  0
  4 23  1  0  0  0  0
  5  6  2  0  0  0  0
  5 24  1  0  0  0  0
  6 25  1  0  0  0  0
  7  8  1  0  0  0  0
  7  9  2  0  0  0  0
  8 10  1  0  0  0  0
  8 26  1  0  0  0  0
 10 11  1  0  0  0  0
 10 14  1  0  0  0  0
 10 27  1  6  0  0  0
 11 12  1  0  0  0  0
 11 28  1  0  0  0  0
 11 29  1  0  0  0  0
 12 13  1  0  0  0  0
 12 15  1  0  0  0  0
 12 45  1  6  0  0  0
 13 14  1  0  0  0  0
 13 30  1  0  0  0  0
 13 31  1  0  0  0  0
 14 32  1  0  0  0  0
 14 33  1  0  0  0  0
 15 16  1  0  0  0  0
 15 34  1  0  0  0  0
 15 35  1  0  0  0  0
 16 17  1  0  0  0  0
 16 20  1  0  0  0  0
 16 36  1  0  0  0  0
 17 18  1  0  0  0  0
 17 37  1  0  0  0  0
 17 38  1  0  0  0  0
 18 19  1  0  0  0  0
 18 39  1  0  0  0  0
 18 40  1  0  0  0  0
 19 20  1  0  0  0  0
 19 41  1  0  0  0  0
 19 42  1  0  0  0  0
 20 43  1  0  0  0  0
 20 44  1  0  0  0  0
M  CHG  1  12   1
M  END
>  <BIOSOLVEIT.HYDE_ESTIMATED_AFFINITY_LOWER_BOUNDARY [nM]>
808428108.468719

>  <BIOSOLVEIT.HYDE_ESTIMATED_AFFINITY_UPPER_BOUNDARY [nM]>
80322112381.623978

>  <BIOSOLVEIT.HYDE_LIGAND_EFFICIENCY range: ++, +, 0, -, -->
--

>  <BIOSOLVEIT.HYDE_LIGAND_LIPOPHILIC_EFFICIENCY range: ++, +, 0, -, -->
--

>  <BIOSOLVEIT.INTER_CLASH range: red, yellow, green>
green

>  <BIOSOLVEIT.INTRA_CLASH range: red, yellow, green>
green

>  <BIOSOLVEIT.LOGP>
1.2638

>  <BIOSOLVEIT.MOLECULAR WEIGHT>
273.398

>  <BIOSOLVEIT.MOLECULE_CHECKSUM>
NS4xNzI4Mjsw

>  <BIOSOLVEIT.TORSION_QUALITY range: red, yellow, green, not rotatable>
yellow

>  <BIOSOLVEIT.TPSA>
33.54

$$$$
