Z410195728.****
 OpenBabel12172121453D
Hydescorer 1.1.2 b8048283
 37 38  0  0  0  0  0  0  0  0999 V2000
    0.1944  -13.5044    4.4568 C   0  0  0  0  0  0  0  0  0  0  0  0
   -0.8990  -12.6973    4.7610 C   0  0  0  0  0  0  0  0  0  0  0  0
   -2.1378  -12.9212    4.1596 C   0  0  0  0  0  0  0  0  0  0  0  0
   -2.2606  -13.9764    3.2410 C   0  0  0  0  0  0  0  0  0  0  0  0
   -1.1682  -14.7874    2.9270 C   0  0  0  0  0  0  0  0  0  0  0  0
    0.0570  -14.5476    3.5401 C   0  0  0  0  0  0  0  0  0  0  0  0
    1.4260  -15.5416    3.1620 Cl  0  0  0  0  0  0  0  0  0  0  0  0
   -3.3153  -12.0287    4.5154 C   0  0  0  0  0  0  0  0  0  0  0  0
   -3.5132  -14.1805    2.6115 N   0  0  0  0  0  0  0  0  0  0  0  0
   -4.5231  -14.9817    3.0540 C   0  0  0  0  0  0  0  0  0  0  0  0
   -5.6006  -14.9685    2.2310 N   0  0  0  0  0  0  0  0  0  0  0  0
   -4.4793  -15.6414    4.0826 O   0  0  0  0  0  0  0  0  0  0  0  0
   -6.8009  -15.7596    2.5163 C   0  0  0  0  0  0  0  0  0  0  0  0
   -7.5737  -14.9971    3.6049 C   0  0  0  0  0  0  0  0  0  0  0  0
   -8.8469  -14.2991    3.1147 C   0  0  0  0  0  0  0  0  0  0  0  0
   -9.6942  -14.0864    4.3728 C   0  0  0  0  0  0  0  0  0  0  0  0
   -9.1344  -15.0474    5.4282 C   0  0  0  0  0  0  0  0  0  0  0  0
   -8.1294  -15.9265    4.6845 C   0  0  0  0  0  0  0  0  0  0  0  0
    1.0775  -13.3365    4.8951 H   0  0  0  0  0  0  0  0  0  0  0  0
   -0.7952  -11.9497    5.4170 H   0  0  0  0  0  0  0  0  0  0  0  0
   -1.2658  -15.5332    2.2679 H   0  0  0  0  0  0  0  0  0  0  0  0
   -4.1219  -12.3205    4.0014 H   0  0  0  0  0  0  0  0  0  0  0  0
   -3.5017  -12.0977    5.4955 H   0  0  0  0  0  0  0  0  0  0  0  0
   -3.0971  -11.0808    4.2835 H   0  0  0  0  0  0  0  0  0  0  0  0
   -3.6726  -13.6870    1.7565 H   0  0  0  0  0  0  0  0  0  0  0  0
   -5.5755  -14.4034    1.4064 H   0  0  0  0  0  0  0  0  0  0  0  0
   -6.5459  -16.6687    2.8456 H   0  0  0  0  0  0  0  0  0  0  0  0
   -7.3607  -15.8483    1.6924 H   0  0  0  0  0  0  0  0  0  0  0  0
   -6.9691  -14.3225    4.0286 H   0  0  0  0  0  0  0  0  0  0  0  0
   -9.3326  -14.8756    2.4575 H   0  0  0  0  0  0  0  0  0  0  0  0
   -8.6248  -13.4222    2.6885 H   0  0  0  0  0  0  0  0  0  0  0  0
  -10.6535  -14.2972    4.1851 H   0  0  0  0  0  0  0  0  0  0  0  0
   -9.6162  -13.1406    4.6881 H   0  0  0  0  0  0  0  0  0  0  0  0
   -9.8674  -15.6059    5.8167 H   0  0  0  0  0  0  0  0  0  0  0  0
   -8.6801  -14.5382    6.1591 H   0  0  0  0  0  0  0  0  0  0  0  0
   -7.4030  -16.2366    5.2979 H   0  0  0  0  0  0  0  0  0  0  0  0
   -8.5816  -16.7192    4.2757 H   0  0  0  0  0  0  0  0  0  0  0  0
  1  2  2  0  0  0  0
  1  6  1  0  0  0  0
  1 19  1  0  0  0  0
  2  3  1  0  0  0  0
  2 20  1  0  0  0  0
  3  4  2  0  0  0  0
  3  8  1  0  0  0  0
  4  5  1  0  0  0  0
  4  9  1  0  0  0  0
  5  6  2  0  0  0  0
  5 21  1  0  0  0  0
  6  7  1  0  0  0  0
  8 22  1  0  0  0  0
  8 23  1  0  0  0  0
  8 24  1  0  0  0  0
  9 10  1  0  0  0  0
  9 25  1  0  0  0  0
 10 11  1  0  0  0  0
 10 12  2  0  0  0  0
 11 13  1  0  0  0  0
 11 26  1  0  0  0  0
 13 14  1  0  0  0  0
 13 27  1  0  0  0  0
 13 28  1  0  0  0  0
 14 15  1  0  0  0  0
 14 18  1  0  0  0  0
 14 29  1  0  0  0  0
 15 16  1  0  0  0  0
 15 30  1  0  0  0  0
 15 31  1  0  0  0  0
 16 17  1  0  0  0  0
 16 32  1  0  0  0  0
 16 33  1  0  0  0  0
 17 18  1  0  0  0  0
 17 34  1  0  0  0  0
 17 35  1  0  0  0  0
 18 36  1  0  0  0  0
 18 37  1  0  0  0  0
M  END
>  <BIOSOLVEIT.HYDE_ESTIMATED_AFFINITY_LOWER_BOUNDARY [nM]>
29047354136.285168

>  <BIOSOLVEIT.HYDE_ESTIMATED_AFFINITY_UPPER_BOUNDARY [nM]>
2886026374989.412109

>  <BIOSOLVEIT.HYDE_LIGAND_EFFICIENCY range: ++, +, 0, -, -->
--

>  <BIOSOLVEIT.HYDE_LIGAND_LIPOPHILIC_EFFICIENCY range: ++, +, 0, -, -->
--

>  <BIOSOLVEIT.INTER_CLASH range: red, yellow, green>
green

>  <BIOSOLVEIT.INTRA_CLASH range: red, yellow, green>
green

>  <BIOSOLVEIT.LOGP>
3.96012

>  <BIOSOLVEIT.MOLECULAR WEIGHT>
266.77

>  <BIOSOLVEIT.MOLECULE_CHECKSUM>
MTQuMDUxNDsw

>  <BIOSOLVEIT.TORSION_QUALITY range: red, yellow, green, not rotatable>
red

>  <BIOSOLVEIT.TPSA>
41.13

$$$$
