G5.sdf
 OpenBabel12172121453D
Hydescorer 1.1.2 b8048283
 74 77  0  0  0  0  0  0  0  0999 V2000
   -1.5428  -13.4313    3.3320 C   0  0  0  0  0  0  0  0  0  0  0  0
   -0.5361  -14.3863    3.2488 C   0  0  0  0  0  0  0  0  0  0  0  0
   -0.8279  -15.6689    2.7930 C   0  0  0  0  0  0  0  0  0  0  0  0
   -2.1273  -15.9933    2.4139 C   0  0  0  0  0  0  0  0  0  0  0  0
   -3.1356  -15.0399    2.4968 C   0  0  0  0  0  0  0  0  0  0  0  0
   -2.8618  -13.7483    2.9689 C   0  0  0  0  0  0  0  0  0  0  0  0
   -3.9357  -12.7588    3.0685 C   0  0  0  0  0  0  0  0  0  0  0  0
   -3.6631  -11.6115    3.3946 O   0  0  0  0  0  0  0  0  0  0  0  0
   -5.3293  -13.1034    2.7845 C   0  0  0  0  0  0  0  0  0  0  0  0
   -6.1529  -13.6050    3.8027 C   0  0  0  0  0  0  0  0  0  0  0  0
   -7.4741  -13.9483    3.5456 C   0  0  0  0  0  0  0  0  0  0  0  0
   -8.0181  -13.7978    2.2620 C   0  0  0  0  0  0  0  0  0  0  0  0
   -7.2029  -13.2707    1.2472 C   0  0  0  0  0  0  0  0  0  0  0  0
   -5.8805  -12.9286    1.5046 C   0  0  0  0  0  0  0  0  0  0  0  0
   -9.4097  -14.1862    2.0109 C   0  0  0  0  0  0  0  0  0  0  0  0
  -10.4039  -13.2551    2.1292 N   0  0  0  0  0  0  0  0  0  0  0  0
   -9.7424  -15.3145    1.6623 O   0  0  0  0  0  0  0  0  0  0  0  0
  -11.8293  -13.5846    1.8888 C   0  0  2  0  0  0  0  0  0  0  0  0
  -12.6176  -12.2793    1.6440 C   0  0  0  0  0  0  0  0  0  0  0  0
  -12.3651  -14.2994    3.1550 C   0  0  0  0  0  0  0  0  0  0  0  0
  -11.3425  -14.2216    4.3140 C   0  0  0  0  0  0  0  0  0  0  0  0
  -11.9466  -13.3458    5.4283 C   0  0  0  0  0  0  0  0  0  0  0  0
  -11.0008  -13.2260    6.6320 C   0  0  0  0  0  0  0  0  0  0  0  0
  -10.6507  -14.6119    7.1884 C   0  0  0  0  0  0  0  0  0  0  0  0
  -10.0404  -15.4958    6.0926 C   0  0  0  0  0  0  0  0  0  0  0  0
  -10.9809  -15.6094    4.8840 C   0  0  0  0  0  0  0  0  0  0  0  0
  -13.1715  -12.1493    0.4399 N   0  0  0  0  0  0  0  0  0  0  0  0
  -12.6985  -11.3639    2.4614 O   0  0  0  0  0  0  0  0  0  0  0  0
  -13.9681  -11.0068   -0.0426 C   0  0  1  0  0  0  0  0  0  0  0  0
  -13.5496  -10.4761   -1.4517 C   0  0  0  0  0  0  0  0  0  0  0  0
  -15.4515  -11.4572   -0.0742 C   0  0  0  0  0  0  0  0  0  0  0  0
  -15.6347  -12.4474   -1.2487 C   0  0  0  0  0  0  0  0  0  0  0  0
  -17.0287  -12.9650   -1.4461 C   0  0  0  0  0  0  0  0  0  0  0  0
  -15.9560  -13.8631   -0.8721 C   0  0  0  0  0  0  0  0  0  0  0  0
  -13.7690   -9.1866   -1.7282 N   0  0  0  0  0  0  0  0  0  0  0  0
  -13.0063  -11.2039   -2.2806 O   0  0  0  0  0  0  0  0  0  0  0  0
  -13.4328   -8.5508   -2.9956 C   0  0  0  0  0  0  0  0  0  0  0  0
   -1.3257  -12.5096    3.6536 H   0  0  0  0  0  0  0  0  0  0  0  0
    0.3984  -14.1518    3.5164 H   0  0  0  0  0  0  0  0  0  0  0  0
   -0.1044  -16.3570    2.7380 H   0  0  0  0  0  0  0  0  0  0  0  0
   -2.3358  -16.9131    2.0817 H   0  0  0  0  0  0  0  0  0  0  0  0
   -4.0657  -15.2777    2.2167 H   0  0  0  0  0  0  0  0  0  0  0  0
   -5.7844  -13.7171    4.7256 H   0  0  0  0  0  0  0  0  0  0  0  0
   -8.0441  -14.3071    4.2848 H   0  0  0  0  0  0  0  0  0  0  0  0
   -7.5778  -13.1401    0.3294 H   0  0  0  0  0  0  0  0  0  0  0  0
   -5.3149  -12.5537    0.7700 H   0  0  0  0  0  0  0  0  0  0  0  0
  -10.1612  -12.3198    2.3867 H   0  0  0  0  0  0  0  0  0  0  0  0
  -11.9116  -14.1875    1.0952 H   0  0  0  0  0  0  0  0  0  0  0  0
  -12.5405  -15.2597    2.9382 H   0  0  0  0  0  0  0  0  0  0  0  0
  -13.2172  -13.8613    3.4413 H   0  0  0  0  0  0  0  0  0  0  0  0
  -10.5082  -13.7845    3.9781 H   0  0  0  0  0  0  0  0  0  0  0  0
  -12.8069  -13.7553    5.7317 H   0  0  0  0  0  0  0  0  0  0  0  0
  -12.1231  -12.4320    5.0625 H   0  0  0  0  0  0  0  0  0  0  0  0
  -11.4470  -12.6884    7.3474 H   0  0  0  0  0  0  0  0  0  0  0  0
  -10.1606  -12.7661    6.3445 H   0  0  0  0  0  0  0  0  0  0  0  0
  -11.4819  -15.0460    7.5357 H   0  0  0  0  0  0  0  0  0  0  0  0
   -9.9915  -14.5099    7.9334 H   0  0  0  0  0  0  0  0  0  0  0  0
   -9.8751  -16.4092    6.4644 H   0  0  0  0  0  0  0  0  0  0  0  0
   -9.1738  -15.0952    5.7951 H   0  0  0  0  0  0  0  0  0  0  0  0
  -10.5297  -16.1458    4.1709 H   0  0  0  0  0  0  0  0  0  0  0  0
  -11.8204  -16.0724    5.1684 H   0  0  0  0  0  0  0  0  0  0  0  0
  -13.0330  -12.9034   -0.2021 H   0  0  0  0  0  0  0  0  0  0  0  0
  -13.8791  -10.2593    0.6156 H   0  0  0  0  0  0  0  0  0  0  0  0
  -16.0434  -10.6622   -0.2070 H   0  0  0  0  0  0  0  0  0  0  0  0
  -15.6864  -11.9075    0.7872 H   0  0  0  0  0  0  0  0  0  0  0  0
  -15.0763  -12.3027   -2.0655 H   0  0  0  0  0  0  0  0  0  0  0  0
  -17.3764  -13.1274   -2.3696 H   0  0  0  0  0  0  0  0  0  0  0  0
  -17.7719  -12.6369   -0.8630 H   0  0  0  0  0  0  0  0  0  0  0  0
  -15.9890  -14.1298    0.0911 H   0  0  0  0  0  0  0  0  0  0  0  0
  -15.5935  -14.6203   -1.4154 H   0  0  0  0  0  0  0  0  0  0  0  0
  -14.1912   -8.6216   -1.0192 H   0  0  0  0  0  0  0  0  0  0  0  0
  -13.6912   -7.5853   -2.9631 H   0  0  0  0  0  0  0  0  0  0  0  0
  -12.4487   -8.6273   -3.1563 H   0  0  0  0  0  0  0  0  0  0  0  0
  -13.9278   -9.0035   -3.7373 H   0  0  0  0  0  0  0  0  0  0  0  0
  1  2  2  0  0  0  0
  1  6  1  0  0  0  0
  1 38  1  0  0  0  0
  2  3  1  0  0  0  0
  2 39  1  0  0  0  0
  3  4  2  0  0  0  0
  3 40  1  0  0  0  0
  4  5  1  0  0  0  0
  4 41  1  0  0  0  0
  5  6  2  0  0  0  0
  5 42  1  0  0  0  0
  6  7  1  0  0  0  0
  7  8  2  0  0  0  0
  7  9  1  0  0  0  0
  9 10  2  0  0  0  0
  9 14  1  0  0  0  0
 10 11  1  0  0  0  0
 10 43  1  0  0  0  0
 11 12  2  0  0  0  0
 11 44  1  0  0  0  0
 12 13  1  0  0  0  0
 12 15  1  0  0  0  0
 13 14  2  0  0  0  0
 13 45  1  0  0  0  0
 14 46  1  0  0  0  0
 15 16  1  0  0  0  0
 15 17  2  0  0  0  0
 16 18  1  0  0  0  0
 16 47  1  0  0  0  0
 18 19  1  0  0  0  0
 18 20  1  0  0  0  0
 18 48  1  6  0  0  0
 19 27  1  0  0  0  0
 19 28  2  0  0  0  0
 20 21  1  0  0  0  0
 20 49  1  0  0  0  0
 20 50  1  0  0  0  0
 21 22  1  0  0  0  0
 21 26  1  0  0  0  0
 21 51  1  0  0  0  0
 22 23  1  0  0  0  0
 22 52  1  0  0  0  0
 22 53  1  0  0  0  0
 23 24  1  0  0  0  0
 23 54  1  0  0  0  0
 23 55  1  0  0  0  0
 24 25  1  0  0  0  0
 24 56  1  0  0  0  0
 24 57  1  0  0  0  0
 25 26  1  0  0  0  0
 25 58  1  0  0  0  0
 25 59  1  0  0  0  0
 26 60  1  0  0  0  0
 26 61  1  0  0  0  0
 27 29  1  0  0  0  0
 27 62  1  0  0  0  0
 29 30  1  0  0  0  0
 29 31  1  0  0  0  0
 29 63  1  1  0  0  0
 30 35  1  0  0  0  0
 30 36  2  0  0  0  0
 31 32  1  0  0  0  0
 31 64  1  0  0  0  0
 31 65  1  0  0  0  0
 32 33  1  0  0  0  0
 32 34  1  0  0  0  0
 32 66  1  0  0  0  0
 33 34  1  0  0  0  0
 33 67  1  0  0  0  0
 33 68  1  0  0  0  0
 34 69  1  0  0  0  0
 34 70  1  0  0  0  0
 35 37  1  0  0  0  0
 35 71  1  0  0  0  0
 37 72  1  0  0  0  0
 37 73  1  0  0  0  0
 37 74  1  0  0  0  0
M  END
>  <BIOSOLVEIT.HYDE_ESTIMATED_AFFINITY_LOWER_BOUNDARY [nM]>
6344364.950045

>  <BIOSOLVEIT.HYDE_ESTIMATED_AFFINITY_UPPER_BOUNDARY [nM]>
630350168.641203

>  <BIOSOLVEIT.HYDE_LIGAND_EFFICIENCY range: ++, +, 0, -, -->
--

>  <BIOSOLVEIT.HYDE_LIGAND_LIPOPHILIC_EFFICIENCY range: ++, +, 0, -, -->
--

>  <BIOSOLVEIT.INTER_CLASH range: red, yellow, green>
green

>  <BIOSOLVEIT.INTRA_CLASH range: red, yellow, green>
yellow

>  <BIOSOLVEIT.LOGP>
4.0173

>  <BIOSOLVEIT.MOLECULAR WEIGHT>
503.639

>  <BIOSOLVEIT.MOLECULE_CHECKSUM>
LTYuODQzOTk7MC4xODQ5NzM=

>  <BIOSOLVEIT.TORSION_QUALITY range: red, yellow, green, not rotatable>
red

>  <BIOSOLVEIT.TPSA>
104.37

$$$$
