PV-001802957486.****
 OpenBabel12172121453D
Hydescorer 1.1.2 b8048283
 41 43  0  0  0  0  0  0  0  0999 V2000
   -9.6185   -9.6113   -2.2882 C   0  0  0  0  0  0  0  0  0  0  0  0
  -10.4332  -10.6258   -1.7839 C   0  0  0  0  0  0  0  0  0  0  0  0
   -9.8420  -11.7676   -1.2203 C   0  0  0  0  0  0  0  0  0  0  0  0
   -8.4510  -11.8669   -1.1712 C   0  0  0  0  0  0  0  0  0  0  0  0
   -7.6476  -10.8489   -1.6763 C   0  0  0  0  0  0  0  0  0  0  0  0
   -8.2343   -9.7209   -2.2342 C   0  0  0  0  0  0  0  0  0  0  0  0
  -11.9404  -10.4560   -1.8760 C   0  0  0  0  0  0  0  0  0  0  0  0
   -5.7631  -11.0008   -1.5985 Br  0  0  0  0  0  0  0  0  0  0  0  0
  -10.6642  -12.9053   -0.6170 C   0  0  0  0  0  0  0  0  0  0  0  0
   -9.7111  -13.8613    0.0774 C   0  0  0  0  0  0  0  0  0  0  0  0
   -9.3481  -13.5773    1.3720 N   0  0  0  0  0  0  0  0  0  0  0  0
   -9.2730  -14.8453   -0.4826 O   0  0  0  0  0  0  0  0  0  0  0  0
   -8.4812  -14.3228    2.2006 C   0  0  0  0  0  0  0  0  0  0  0  0
   -7.1210  -14.4376    1.9168 C   0  0  0  0  0  0  0  0  0  0  0  0
   -6.3252  -15.1713    2.7918 C   0  0  0  0  0  0  0  0  0  0  0  0
   -6.8569  -15.8101    3.9147 C   0  0  0  0  0  0  0  0  0  0  0  0
   -8.2240  -15.7025    4.1672 C   0  0  0  0  0  0  0  0  0  0  0  0
   -9.0380  -14.9599    3.3131 C   0  0  0  0  0  0  0  0  0  0  0  0
   -4.9183  -15.2669    2.5355 N   0  0  0  0  0  0  0  0  0  0  0  0
   -4.0179  -14.2729    2.5024 C   0  0  0  0  0  0  0  0  0  0  0  0
   -2.8511  -14.7666    2.2471 N   0  0  0  0  0  0  0  0  0  0  0  0
   -2.9960  -16.1294    2.1102 N   0  0  0  0  0  0  0  0  0  0  0  0
   -4.2460  -16.3925    2.2892 C   0  0  0  0  0  0  0  0  0  0  0  0
   -4.3691  -12.8184    2.7328 C   0  0  0  0  0  0  0  0  0  0  0  0
  -10.0351   -8.7971   -2.6926 H   0  0  0  0  0  0  0  0  0  0  0  0
   -8.0269  -12.6782   -0.7688 H   0  0  0  0  0  0  0  0  0  0  0  0
   -7.6604   -8.9869   -2.5974 H   0  0  0  0  0  0  0  0  0  0  0  0
  -12.3908  -11.2551   -1.4778 H   0  0  0  0  0  0  0  0  0  0  0  0
  -12.2145   -9.6349   -1.3754 H   0  0  0  0  0  0  0  0  0  0  0  0
  -12.2077  -10.3662   -2.8354 H   0  0  0  0  0  0  0  0  0  0  0  0
  -11.1590  -13.3863   -1.3407 H   0  0  0  0  0  0  0  0  0  0  0  0
  -11.3170  -12.5372    0.0452 H   0  0  0  0  0  0  0  0  0  0  0  0
   -9.7421  -12.7499    1.7722 H   0  0  0  0  0  0  0  0  0  0  0  0
   -6.7276  -14.0042    1.1060 H   0  0  0  0  0  0  0  0  0  0  0  0
   -6.2668  -16.3359    4.5273 H   0  0  0  0  0  0  0  0  0  0  0  0
   -8.6216  -16.1592    4.9630 H   0  0  0  0  0  0  0  0  0  0  0  0
  -10.0182  -14.8832    3.4960 H   0  0  0  0  0  0  0  0  0  0  0  0
   -4.6515  -17.3057    2.2493 H   0  0  0  0  0  0  0  0  0  0  0  0
   -3.5424  -12.2604    2.6605 H   0  0  0  0  0  0  0  0  0  0  0  0
   -5.0321  -12.5225    2.0452 H   0  0  0  0  0  0  0  0  0  0  0  0
   -4.7647  -12.7114    3.6450 H   0  0  0  0  0  0  0  0  0  0  0  0
  1  2  2  0  0  0  0
  1  6  1  0  0  0  0
  1 25  1  0  0  0  0
  2  3  1  0  0  0  0
  2  7  1  0  0  0  0
  3  4  2  0  0  0  0
  3  9  1  0  0  0  0
  4  5  1  0  0  0  0
  4 26  1  0  0  0  0
  5  6  2  0  0  0  0
  5  8  1  0  0  0  0
  6 27  1  0  0  0  0
  7 28  1  0  0  0  0
  7 29  1  0  0  0  0
  7 30  1  0  0  0  0
  9 10  1  0  0  0  0
  9 31  1  0  0  0  0
  9 32  1  0  0  0  0
 10 11  1  0  0  0  0
 10 12  2  0  0  0  0
 11 13  1  0  0  0  0
 11 33  1  0  0  0  0
 13 14  2  0  0  0  0
 13 18  1  0  0  0  0
 14 15  1  0  0  0  0
 14 34  1  0  0  0  0
 15 16  2  0  0  0  0
 15 19  1  0  0  0  0
 16 17  1  0  0  0  0
 16 35  1  0  0  0  0
 17 18  2  0  0  0  0
 17 36  1  0  0  0  0
 18 37  1  0  0  0  0
 19 20  1  0  0  0  0
 19 23  1  0  0  0  0
 20 21  2  0  0  0  0
 20 24  1  0  0  0  0
 21 22  1  0  0  0  0
 22 23  2  0  0  0  0
 23 38  1  0  0  0  0
 24 39  1  0  0  0  0
 24 40  1  0  0  0  0
 24 41  1  0  0  0  0
M  END
>  <BIOSOLVEIT.HYDE_ESTIMATED_AFFINITY_LOWER_BOUNDARY [nM]>
47476786023.287117

>  <BIOSOLVEIT.HYDE_ESTIMATED_AFFINITY_UPPER_BOUNDARY [nM]>
4717099396387.874023

>  <BIOSOLVEIT.HYDE_LIGAND_EFFICIENCY range: ++, +, 0, -, -->
--

>  <BIOSOLVEIT.HYDE_LIGAND_LIPOPHILIC_EFFICIENCY range: ++, +, 0, -, -->
--

>  <BIOSOLVEIT.INTER_CLASH range: red, yellow, green>
green

>  <BIOSOLVEIT.INTRA_CLASH range: red, yellow, green>
green

>  <BIOSOLVEIT.LOGP>
3.82784

>  <BIOSOLVEIT.MOLECULAR WEIGHT>
385.263

>  <BIOSOLVEIT.MOLECULE_CHECKSUM>
MTUuMjY5NDsw

>  <BIOSOLVEIT.TORSION_QUALITY range: red, yellow, green, not rotatable>
red

>  <BIOSOLVEIT.TPSA>
59.81

$$$$
