m_22bba____14316652____9279318
 OpenBabel12172121453D
Hydescorer 1.1.2 b8048283
 57 59  0  0  0  0  0  0  0  0999 V2000
  -12.5827  -14.6508    1.9069 Cl  0  0  0  0  0  0  0  0  0  0  0  0
  -10.8722  -14.7086    1.6161 C   0  0  0  0  0  0  0  0  0  0  0  0
  -10.3061  -14.7963    0.3181 C   0  0  0  0  0  0  0  0  0  0  0  0
   -8.9932  -14.7664    0.1054 N   0  0  0  0  0  0  0  0  0  0  0  0
   -8.1713  -14.6805    1.1551 C   0  0  0  0  0  0  0  0  0  0  0  0
   -8.6322  -14.6117    2.4782 C   0  0  0  0  0  0  0  0  0  0  0  0
  -10.0187  -14.6304    2.7041 C   0  0  0  0  0  0  0  0  0  0  0  0
   -7.6561  -14.5229    3.5613 C   0  0  0  0  0  0  0  0  0  0  0  0
   -7.8931  -13.9412    4.6100 O   0  0  0  0  0  0  0  0  0  0  0  0
   -6.4238  -15.1157    3.4206 N   0  0  0  0  0  0  0  0  0  0  0  0
   -5.3285  -15.1168    4.4206 C   0  0  1  0  0  0  0  0  0  0  0  0
   -4.7463  -16.5450    4.6282 C   0  0  2  0  0  0  0  0  0  0  0  0
   -5.7494  -17.3249    5.1514 F   0  0  0  0  0  0  0  0  0  0  0  0
   -3.6520  -16.4553    5.7086 C   0  0  0  0  0  0  0  0  0  0  0  0
   -2.6713  -15.4521    5.2360 N   0  0  0  0  0  0  0  0  0  0  0  0
   -1.4458  -15.8609    4.7568 C   0  0  0  0  0  0  0  0  0  0  0  0
   -0.9782  -16.9575    5.0279 O   0  0  0  0  0  0  0  0  0  0  0  0
   -0.8024  -14.9716    3.9725 O   0  0  0  0  0  0  0  0  0  0  0  0
    0.1952  -14.0078    4.3623 C   0  0  0  0  0  0  0  0  0  0  0  0
    1.5601  -14.6510    4.1083 C   0  0  0  0  0  0  0  0  0  0  0  0
    0.0810  -13.6870    5.8571 C   0  0  0  0  0  0  0  0  0  0  0  0
    0.0888  -12.7423    3.5033 C   0  0  0  0  0  0  0  0  0  0  0  0
   -3.1675  -14.0730    5.0798 C   0  0  0  0  0  0  0  0  0  0  0  0
   -4.2197  -14.1477    3.9583 C   0  0  0  0  0  0  0  0  0  0  0  0
  -11.0245  -14.9001   -0.8576 N   0  0  0  0  0  0  0  0  0  0  0  0
  -11.4632  -13.8167   -1.6420 C   0  0  0  0  0  0  0  0  0  0  0  0
  -12.4488  -13.9912   -2.6169 C   0  0  0  0  0  0  0  0  0  0  0  0
  -12.8527  -12.9031   -3.3837 C   0  0  0  0  0  0  0  0  0  0  0  0
  -12.2676  -11.6499   -3.1808 C   0  0  0  0  0  0  0  0  0  0  0  0
  -12.7705  -10.2980   -4.1359 Cl  0  0  0  0  0  0  0  0  0  0  0  0
  -11.2755  -11.4849   -2.2097 C   0  0  0  0  0  0  0  0  0  0  0  0
  -10.8697  -12.5696   -1.4392 C   0  0  0  0  0  0  0  0  0  0  0  0
   -7.1851  -14.6646    0.9905 H   0  0  0  0  0  0  0  0  0  0  0  0
  -10.3831  -14.5879    3.6344 H   0  0  0  0  0  0  0  0  0  0  0  0
   -6.2487  -15.5930    2.5595 H   0  0  0  0  0  0  0  0  0  0  0  0
   -5.6931  -14.7913    5.2930 H   0  0  0  0  0  0  0  0  0  0  0  0
   -4.3910  -16.9257    3.7745 H   0  0  0  0  0  0  0  0  0  0  0  0
   -3.2080  -17.3438    5.8244 H   0  0  0  0  0  0  0  0  0  0  0  0
   -4.0497  -16.1654    6.5791 H   0  0  0  0  0  0  0  0  0  0  0  0
    2.2836  -14.0110    4.3673 H   0  0  0  0  0  0  0  0  0  0  0  0
    1.6421  -15.4851    4.6537 H   0  0  0  0  0  0  0  0  0  0  0  0
    1.6467  -14.8771    3.1381 H   0  0  0  0  0  0  0  0  0  0  0  0
    0.7800  -13.0177    6.1088 H   0  0  0  0  0  0  0  0  0  0  0  0
   -0.8254  -13.3106    6.0490 H   0  0  0  0  0  0  0  0  0  0  0  0
    0.2138  -14.5236    6.3886 H   0  0  0  0  0  0  0  0  0  0  0  0
    0.7879  -12.0864    3.7880 H   0  0  0  0  0  0  0  0  0  0  0  0
    0.2264  -12.9797    2.5417 H   0  0  0  0  0  0  0  0  0  0  0  0
   -0.8173  -12.3355    3.6199 H   0  0  0  0  0  0  0  0  0  0  0  0
   -2.4218  -13.4591    4.8209 H   0  0  0  0  0  0  0  0  0  0  0  0
   -3.5837  -13.7516    5.9304 H   0  0  0  0  0  0  0  0  0  0  0  0
   -4.6070  -13.2405    3.7933 H   0  0  0  0  0  0  0  0  0  0  0  0
   -3.7983  -14.4881    3.1177 H   0  0  0  0  0  0  0  0  0  0  0  0
  -11.2514  -15.8200   -1.1773 H   0  0  0  0  0  0  0  0  0  0  0  0
  -12.8605  -14.8909   -2.7622 H   0  0  0  0  0  0  0  0  0  0  0  0
  -13.5615  -13.0173   -4.0798 H   0  0  0  0  0  0  0  0  0  0  0  0
  -10.8577  -10.5873   -2.0690 H   0  0  0  0  0  0  0  0  0  0  0  0
  -10.1584  -12.4569   -0.7454 H   0  0  0  0  0  0  0  0  0  0  0  0
  1  2  1  0  0  0  0
  2  3  2  0  0  0  0
  2  7  1  0  0  0  0
  3  4  1  0  0  0  0
  3 25  1  0  0  0  0
  4  5  2  0  0  0  0
  5  6  1  0  0  0  0
  5 33  1  0  0  0  0
  6  7  2  0  0  0  0
  6  8  1  0  0  0  0
  7 34  1  0  0  0  0
  8  9  2  0  0  0  0
  8 10  1  0  0  0  0
 10 11  1  0  0  0  0
 10 35  1  0  0  0  0
 11 12  1  0  0  0  0
 11 24  1  0  0  0  0
 11 36  1  1  0  0  0
 12 13  1  0  0  0  0
 12 14  1  0  0  0  0
 12 37  1  6  0  0  0
 14 15  1  0  0  0  0
 14 38  1  0  0  0  0
 14 39  1  0  0  0  0
 15 16  1  0  0  0  0
 15 23  1  0  0  0  0
 16 17  2  0  0  0  0
 16 18  1  0  0  0  0
 18 19  1  0  0  0  0
 19 20  1  0  0  0  0
 19 21  1  0  0  0  0
 19 22  1  0  0  0  0
 20 40  1  0  0  0  0
 20 41  1  0  0  0  0
 20 42  1  0  0  0  0
 21 43  1  0  0  0  0
 21 44  1  0  0  0  0
 21 45  1  0  0  0  0
 22 46  1  0  0  0  0
 22 47  1  0  0  0  0
 22 48  1  0  0  0  0
 23 24  1  0  0  0  0
 23 49  1  0  0  0  0
 23 50  1  0  0  0  0
 24 51  1  0  0  0  0
 24 52  1  0  0  0  0
 25 26  1  0  0  0  0
 25 53  1  0  0  0  0
 26 27  2  0  0  0  0
 26 32  1  0  0  0  0
 27 28  1  0  0  0  0
 27 54  1  0  0  0  0
 28 29  2  0  0  0  0
 28 55  1  0  0  0  0
 29 30  1  0  0  0  0
 29 31  1  0  0  0  0
 31 32  2  0  0  0  0
 31 56  1  0  0  0  0
 32 57  1  0  0  0  0
M  END
>  <BIOSOLVEIT.HYDE_ESTIMATED_AFFINITY_LOWER_BOUNDARY [nM]>
37054204.194667

>  <BIOSOLVEIT.HYDE_ESTIMATED_AFFINITY_UPPER_BOUNDARY [nM]>
3681554268.533782

>  <BIOSOLVEIT.HYDE_LIGAND_EFFICIENCY range: ++, +, 0, -, -->
--

>  <BIOSOLVEIT.HYDE_LIGAND_LIPOPHILIC_EFFICIENCY range: ++, +, 0, -, -->
--

>  <BIOSOLVEIT.INTER_CLASH range: red, yellow, green>
green

>  <BIOSOLVEIT.INTRA_CLASH range: red, yellow, green>
green

>  <BIOSOLVEIT.LOGP>
5.2093

>  <BIOSOLVEIT.MOLECULAR WEIGHT>
483.369

>  <BIOSOLVEIT.MOLECULE_CHECKSUM>
LTIuNDY5MDk7MC4wNzcxNTk=

>  <BIOSOLVEIT.TORSION_QUALITY range: red, yellow, green, not rotatable>
red

>  <BIOSOLVEIT.TPSA>
83.56

$$$$
