PV-000117881128.****
 OpenBabel12172121453D
Hydescorer 1.1.2 b8048283
 45 47  0  0  0  0  0  0  0  0999 V2000
   -7.2479  -14.3292    3.0982 C   0  0  0  0  0  0  0  0  0  0  0  0
   -7.2320  -13.7141    1.8517 C   0  0  0  0  0  0  0  0  0  0  0  0
   -6.2332  -12.7858    1.5216 C   0  0  0  0  0  0  0  0  0  0  0  0
   -5.2558  -12.4817    2.4853 C   0  0  0  0  0  0  0  0  0  0  0  0
   -5.2746  -13.1002    3.7317 C   0  0  0  0  0  0  0  0  0  0  0  0
   -6.2690  -14.0240    4.0380 C   0  0  0  0  0  0  0  0  0  0  0  0
   -6.2340  -12.1571    0.1948 C   0  0  0  0  0  0  0  0  0  0  0  0
   -7.4255  -11.8555   -0.4181 N   0  0  0  0  0  0  0  0  0  0  0  0
   -5.2144  -11.8714   -0.4169 O   0  0  0  0  0  0  0  0  0  0  0  0
   -7.4854  -11.2206   -1.7567 C   0  0  1  0  0  0  0  0  0  0  0  0
   -8.9212  -11.2441   -2.3166 C   0  0  0  0  0  0  0  0  0  0  0  0
   -9.5601  -10.2657   -1.4325 N   0  3  1  0  0  0  0  0  0  0  0  0
   -8.6626   -9.1035   -1.4486 C   0  0  0  0  0  0  0  0  0  0  0  0
   -7.2533   -9.7208   -1.5449 C   0  0  0  0  0  0  0  0  0  0  0  0
  -10.8945   -9.9203   -1.9533 C   0  0  0  0  0  0  0  0  0  0  0  0
  -11.6233  -11.2615   -2.1773 C   0  0  0  0  0  0  0  0  0  0  0  0
  -12.2089  -11.8405   -0.8831 C   0  0  0  0  0  0  0  0  0  0  0  0
  -13.3255  -12.7696   -1.3642 C   0  0  0  0  0  0  0  0  0  0  0  0
  -13.7165  -12.2792   -2.7630 C   0  0  0  0  0  0  0  0  0  0  0  0
  -12.8826  -11.0231   -3.0117 C   0  0  0  0  0  0  0  0  0  0  0  0
   -7.9637  -14.9915    3.3195 H   0  0  0  0  0  0  0  0  0  0  0  0
   -7.9409  -13.9360    1.1822 H   0  0  0  0  0  0  0  0  0  0  0  0
   -4.5410  -11.8152    2.2733 H   0  0  0  0  0  0  0  0  0  0  0  0
   -4.5720  -12.8804    4.4086 H   0  0  0  0  0  0  0  0  0  0  0  0
   -6.2799  -14.4684    4.9336 H   0  0  0  0  0  0  0  0  0  0  0  0
   -8.2805  -12.0710    0.0538 H   0  0  0  0  0  0  0  0  0  0  0  0
   -6.8251  -11.6187   -2.3935 H   0  0  0  0  0  0  0  0  0  0  0  0
   -9.3378  -12.1491   -2.2300 H   0  0  0  0  0  0  0  0  0  0  0  0
   -8.9506  -10.9537   -3.2730 H   0  0  0  0  0  0  0  0  0  0  0  0
   -8.7593   -8.5681   -0.6096 H   0  0  0  0  0  0  0  0  0  0  0  0
   -8.8500   -8.5208   -2.2393 H   0  0  0  0  0  0  0  0  0  0  0  0
   -6.7518   -9.3311   -2.3173 H   0  0  0  0  0  0  0  0  0  0  0  0
   -6.7420   -9.5609   -0.7005 H   0  0  0  0  0  0  0  0  0  0  0  0
  -10.8124   -9.4211   -2.8159 H   0  0  0  0  0  0  0  0  0  0  0  0
  -11.3922   -9.3608   -1.2904 H   0  0  0  0  0  0  0  0  0  0  0  0
  -11.0210  -11.9238   -2.6230 H   0  0  0  0  0  0  0  0  0  0  0  0
  -12.5768  -11.1137   -0.3032 H   0  0  0  0  0  0  0  0  0  0  0  0
  -11.5147  -12.3519   -0.3766 H   0  0  0  0  0  0  0  0  0  0  0  0
  -14.1101  -12.7175   -0.7466 H   0  0  0  0  0  0  0  0  0  0  0  0
  -12.9971  -13.7132   -1.4070 H   0  0  0  0  0  0  0  0  0  0  0  0
  -14.6920  -12.0617   -2.7956 H   0  0  0  0  0  0  0  0  0  0  0  0
  -13.5076  -12.9772   -3.4479 H   0  0  0  0  0  0  0  0  0  0  0  0
  -12.6568  -10.9298   -3.9814 H   0  0  0  0  0  0  0  0  0  0  0  0
  -13.3671  -10.2049   -2.7021 H   0  0  0  0  0  0  0  0  0  0  0  0
   -9.6344  -10.6331   -0.5054 H   0  0  0  0  0  0  0  0  0  0  0  0
  1  2  2  0  0  0  0
  1  6  1  0  0  0  0
  1 21  1  0  0  0  0
  2  3  1  0  0  0  0
  2 22  1  0  0  0  0
  3  4  2  0  0  0  0
  3  7  1  0  0  0  0
  4  5  1  0  0  0  0
  4 23  1  0  0  0  0
  5  6  2  0  0  0  0
  5 24  1  0  0  0  0
  6 25  1  0  0  0  0
  7  8  1  0  0  0  0
  7  9  2  0  0  0  0
  8 10  1  0  0  0  0
  8 26  1  0  0  0  0
 10 11  1  0  0  0  0
 10 14  1  0  0  0  0
 10 27  1  6  0  0  0
 11 12  1  0  0  0  0
 11 28  1  0  0  0  0
 11 29  1  0  0  0  0
 12 13  1  0  0  0  0
 12 15  1  0  0  0  0
 12 45  1  1  0  0  0
 13 14  1  0  0  0  0
 13 30  1  0  0  0  0
 13 31  1  0  0  0  0
 14 32  1  0  0  0  0
 14 33  1  0  0  0  0
 15 16  1  0  0  0  0
 15 34  1  0  0  0  0
 15 35  1  0  0  0  0
 16 17  1  0  0  0  0
 16 20  1  0  0  0  0
 16 36  1  0  0  0  0
 17 18  1  0  0  0  0
 17 37  1  0  0  0  0
 17 38  1  0  0  0  0
 18 19  1  0  0  0  0
 18 39  1  0  0  0  0
 18 40  1  0  0  0  0
 19 20  1  0  0  0  0
 19 41  1  0  0  0  0
 19 42  1  0  0  0  0
 20 43  1  0  0  0  0
 20 44  1  0  0  0  0
M  CHG  1  12   1
M  END
>  <BIOSOLVEIT.HYDE_ESTIMATED_AFFINITY_LOWER_BOUNDARY [nM]>
11690187274.760847

>  <BIOSOLVEIT.HYDE_ESTIMATED_AFFINITY_UPPER_BOUNDARY [nM]>
1161489223604.727539

>  <BIOSOLVEIT.HYDE_LIGAND_EFFICIENCY range: ++, +, 0, -, -->
--

>  <BIOSOLVEIT.HYDE_LIGAND_LIPOPHILIC_EFFICIENCY range: ++, +, 0, -, -->
--

>  <BIOSOLVEIT.INTER_CLASH range: red, yellow, green>
green

>  <BIOSOLVEIT.INTRA_CLASH range: red, yellow, green>
green

>  <BIOSOLVEIT.LOGP>
1.2638

>  <BIOSOLVEIT.MOLECULAR WEIGHT>
273.398

>  <BIOSOLVEIT.MOLECULE_CHECKSUM>
MTEuNzk1MTsw

>  <BIOSOLVEIT.TORSION_QUALITY range: red, yellow, green, not rotatable>
green

>  <BIOSOLVEIT.TPSA>
33.54

$$$$
