G6.sdf
 OpenBabel12172121453D
Hydescorer 1.1.2 b8048283
 61 63  0  0  0  0  0  0  0  0999 V2000
    2.1745  -15.2216    3.6818 C   0  0  0  0  0  0  0  0  0  0  0  0
    1.6714  -13.9236    3.7411 C   0  0  0  0  0  0  0  0  0  0  0  0
    0.3304  -13.6785    3.4594 C   0  0  0  0  0  0  0  0  0  0  0  0
   -0.5075  -14.7427    3.1117 C   0  0  0  0  0  0  0  0  0  0  0  0
   -0.0179  -16.0451    3.0620 C   0  0  0  0  0  0  0  0  0  0  0  0
    1.3267  -16.2799    3.3416 C   0  0  0  0  0  0  0  0  0  0  0  0
    1.9523  -17.8936    3.2647 Cl  0  0  0  0  0  0  0  0  0  0  0  0
   -1.8558  -14.5249    2.8180 N   0  0  0  0  0  0  0  0  0  0  0  0
   -2.4892  -13.3674    3.4487 C   0  0  0  0  0  0  0  0  0  0  0  0
   -3.9009  -13.3840    2.9042 C   0  0  0  0  0  0  0  0  0  0  0  0
   -4.4513  -12.5349    1.9808 C   0  0  0  0  0  0  0  0  0  0  0  0
   -5.7826  -12.8431    1.6758 C   0  0  0  0  0  0  0  0  0  0  0  0
   -6.2612  -13.9399    2.3622 C   0  0  0  0  0  0  0  0  0  0  0  0
   -5.0360  -14.5816    3.4114 S   0  0  0  0  0  0  0  0  0  0  0  0
   -7.5698  -14.5647    2.2790 C   0  0  0  0  0  0  0  0  0  0  0  0
   -8.6380  -13.8031    1.8998 N   0  0  0  0  0  0  0  0  0  0  0  0
   -9.9980  -14.3780    1.7950 C   0  0  2  0  0  0  0  0  0  0  0  0
  -10.3407  -14.5713    0.3037 C   0  0  0  0  0  0  0  0  0  0  0  0
  -10.9826  -13.3706    2.4392 C   0  0  0  0  0  0  0  0  0  0  0  0
   -9.4893  -14.7113   -0.5714 O   0  0  0  0  0  0  0  0  0  0  0  0
  -11.6405  -14.6605    0.0028 N   0  0  0  0  0  0  0  0  0  0  0  0
  -12.1679  -14.8444   -1.3468 C   0  0  0  0  0  0  0  0  0  0  0  0
  -12.5247  -13.4884   -1.9598 C   0  0  0  0  0  0  0  0  0  0  0  0
  -11.3529  -12.6930   -2.0600 O   0  0  0  0  0  0  0  0  0  0  0  0
  -11.6095  -11.4156   -2.6244 C   0  0  0  0  0  0  0  0  0  0  0  0
  -10.5624  -13.0899    3.8970 C   0  0  0  0  0  0  0  0  0  0  0  0
  -10.3180  -14.3396    4.7467 C   0  0  0  0  0  0  0  0  0  0  0  0
  -10.4428  -13.8567    6.1954 C   0  0  0  0  0  0  0  0  0  0  0  0
  -11.2372  -12.5463    6.1380 C   0  0  0  0  0  0  0  0  0  0  0  0
  -11.6769  -12.3988    4.6820 C   0  0  0  0  0  0  0  0  0  0  0  0
   -7.7853  -15.7553    2.4956 O   0  0  0  0  0  0  0  0  0  0  0  0
    3.1387  -15.3956    3.8820 H   0  0  0  0  0  0  0  0  0  0  0  0
    2.2757  -13.1657    3.9868 H   0  0  0  0  0  0  0  0  0  0  0  0
   -0.0314  -12.7474    3.5054 H   0  0  0  0  0  0  0  0  0  0  0  0
   -0.6251  -16.8044    2.8281 H   0  0  0  0  0  0  0  0  0  0  0  0
   -2.3633  -15.1313    2.2060 H   0  0  0  0  0  0  0  0  0  0  0  0
   -2.0196  -12.5220    3.1942 H   0  0  0  0  0  0  0  0  0  0  0  0
   -2.4908  -13.4610    4.4443 H   0  0  0  0  0  0  0  0  0  0  0  0
   -3.9532  -11.7729    1.5668 H   0  0  0  0  0  0  0  0  0  0  0  0
   -6.3323  -12.3198    1.0247 H   0  0  0  0  0  0  0  0  0  0  0  0
   -8.4983  -12.8357    1.6881 H   0  0  0  0  0  0  0  0  0  0  0  0
  -10.0394  -15.2546    2.2744 H   0  0  0  0  0  0  0  0  0  0  0  0
  -11.9058  -13.7549    2.4277 H   0  0  0  0  0  0  0  0  0  0  0  0
  -10.9706  -12.5162    1.9196 H   0  0  0  0  0  0  0  0  0  0  0  0
  -12.2974  -14.5969    0.7541 H   0  0  0  0  0  0  0  0  0  0  0  0
  -12.9877  -15.4155   -1.3069 H   0  0  0  0  0  0  0  0  0  0  0  0
  -11.4768  -15.2924   -1.9140 H   0  0  0  0  0  0  0  0  0  0  0  0
  -13.1937  -13.0251   -1.3785 H   0  0  0  0  0  0  0  0  0  0  0  0
  -12.9135  -13.6260   -2.8708 H   0  0  0  0  0  0  0  0  0  0  0  0
  -10.7569  -10.8955   -2.6736 H   0  0  0  0  0  0  0  0  0  0  0  0
  -11.9856  -11.5271   -3.5443 H   0  0  0  0  0  0  0  0  0  0  0  0
  -12.2669  -10.9246   -2.0528 H   0  0  0  0  0  0  0  0  0  0  0  0
   -9.7435  -12.5159    3.9040 H   0  0  0  0  0  0  0  0  0  0  0  0
   -9.4047  -14.7091    4.5757 H   0  0  0  0  0  0  0  0  0  0  0  0
  -11.0035  -15.0402    4.5484 H   0  0  0  0  0  0  0  0  0  0  0  0
   -9.5369  -13.6968    6.5875 H   0  0  0  0  0  0  0  0  0  0  0  0
  -10.9297  -14.5342    6.7467 H   0  0  0  0  0  0  0  0  0  0  0  0
  -10.6603  -11.7757    6.4086 H   0  0  0  0  0  0  0  0  0  0  0  0
  -12.0339  -12.5939    6.7405 H   0  0  0  0  0  0  0  0  0  0  0  0
  -12.5555  -12.8505    4.5270 H   0  0  0  0  0  0  0  0  0  0  0  0
  -11.7482  -11.4346    4.4267 H   0  0  0  0  0  0  0  0  0  0  0  0
  1  2  2  0  0  0  0
  1  6  1  0  0  0  0
  1 32  1  0  0  0  0
  2  3  1  0  0  0  0
  2 33  1  0  0  0  0
  3  4  2  0  0  0  0
  3 34  1  0  0  0  0
  4  5  1  0  0  0  0
  4  8  1  0  0  0  0
  5  6  2  0  0  0  0
  5 35  1  0  0  0  0
  6  7  1  0  0  0  0
  8  9  1  0  0  0  0
  8 36  1  0  0  0  0
  9 10  1  0  0  0  0
  9 37  1  0  0  0  0
  9 38  1  0  0  0  0
 10 11  2  0  0  0  0
 10 14  1  0  0  0  0
 11 12  1  0  0  0  0
 11 39  1  0  0  0  0
 12 13  2  0  0  0  0
 12 40  1  0  0  0  0
 13 14  1  0  0  0  0
 13 15  1  0  0  0  0
 15 16  1  0  0  0  0
 15 31  2  0  0  0  0
 16 17  1  0  0  0  0
 16 41  1  0  0  0  0
 17 18  1  0  0  0  0
 17 19  1  0  0  0  0
 17 42  1  1  0  0  0
 18 20  2  0  0  0  0
 18 21  1  0  0  0  0
 19 26  1  0  0  0  0
 19 43  1  0  0  0  0
 19 44  1  0  0  0  0
 21 22  1  0  0  0  0
 21 45  1  0  0  0  0
 22 23  1  0  0  0  0
 22 46  1  0  0  0  0
 22 47  1  0  0  0  0
 23 24  1  0  0  0  0
 23 48  1  0  0  0  0
 23 49  1  0  0  0  0
 24 25  1  0  0  0  0
 25 50  1  0  0  0  0
 25 51  1  0  0  0  0
 25 52  1  0  0  0  0
 26 27  1  0  0  0  0
 26 30  1  0  0  0  0
 26 53  1  0  0  0  0
 27 28  1  0  0  0  0
 27 54  1  0  0  0  0
 27 55  1  0  0  0  0
 28 29  1  0  0  0  0
 28 56  1  0  0  0  0
 28 57  1  0  0  0  0
 29 30  1  0  0  0  0
 29 58  1  0  0  0  0
 29 59  1  0  0  0  0
 30 60  1  0  0  0  0
 30 61  1  0  0  0  0
M  END
>  <BIOSOLVEIT.HYDE_ESTIMATED_AFFINITY_LOWER_BOUNDARY [nM]>
784233993960.476196

>  <BIOSOLVEIT.HYDE_ESTIMATED_AFFINITY_UPPER_BOUNDARY [nM]>
77918284058304.093750

>  <BIOSOLVEIT.HYDE_LIGAND_EFFICIENCY range: ++, +, 0, -, -->
--

>  <BIOSOLVEIT.HYDE_LIGAND_LIPOPHILIC_EFFICIENCY range: ++, +, 0, -, -->
--

>  <BIOSOLVEIT.INTER_CLASH range: red, yellow, green>
green

>  <BIOSOLVEIT.INTRA_CLASH range: red, yellow, green>
green

>  <BIOSOLVEIT.LOGP>
4.4549

>  <BIOSOLVEIT.MOLECULAR WEIGHT>
464.026

>  <BIOSOLVEIT.MOLECULE_CHECKSUM>
MjIuMjIxNTsw

>  <BIOSOLVEIT.TORSION_QUALITY range: red, yellow, green, not rotatable>
green

>  <BIOSOLVEIT.TPSA>
79.46

$$$$
