G3.sdf
 OpenBabel12172121453D
Hydescorer 1.1.2 b8048283
 66 68  0  0  0  0  0  0  0  0999 V2000
   -0.6266  -12.7296   -5.6516 C   0  0  0  0  0  0  0  0  0  0  0  0
   -0.3441  -11.7475   -4.7072 C   0  0  0  0  0  0  0  0  0  0  0  0
   -1.3759  -11.0107   -4.1335 C   0  0  0  0  0  0  0  0  0  0  0  0
   -2.6982  -11.2542   -4.5119 C   0  0  0  0  0  0  0  0  0  0  0  0
   -2.9912  -12.2473   -5.4498 C   0  0  0  0  0  0  0  0  0  0  0  0
   -1.9514  -12.9776   -6.0188 C   0  0  0  0  0  0  0  0  0  0  0  0
   -2.3022  -14.2063   -7.1896 Cl  0  0  0  0  0  0  0  0  0  0  0  0
   -3.6987  -10.4833   -3.9065 N   0  0  0  0  0  0  0  0  0  0  0  0
   -5.0422  -10.3878   -4.4887 C   0  0  0  0  0  0  0  0  0  0  0  0
   -6.0123  -10.5134   -3.3272 C   0  0  0  0  0  0  0  0  0  0  0  0
   -5.7182  -10.8643   -2.0391 C   0  0  0  0  0  0  0  0  0  0  0  0
   -6.8432  -10.8697   -1.1986 C   0  0  0  0  0  0  0  0  0  0  0  0
   -7.9931  -10.5228   -1.8496 C   0  0  0  0  0  0  0  0  0  0  0  0
   -7.7053  -10.2060   -3.5216 S   0  0  0  0  0  0  0  0  0  0  0  0
   -9.3853  -10.4100   -1.2972 C   0  0  0  0  0  0  0  0  0  0  0  0
   -9.9670  -11.6755   -1.7217 N   0  3  0  0  0  0  0  0  0  0  0  0
  -11.3975  -11.6596   -1.3044 C   0  0  2  0  0  0  0  0  0  0  0  0
  -11.6880  -12.8418   -0.3413 C   0  0  0  0  0  0  0  0  0  0  0  0
  -12.2953  -11.6402   -2.5528 C   0  0  0  0  0  0  0  0  0  0  0  0
  -12.3363  -10.2782   -3.2757 C   0  0  0  0  0  0  0  0  0  0  0  0
  -13.0926  -10.3557   -4.6180 C   0  0  0  0  0  0  0  0  0  0  0  0
  -13.1763   -8.9751   -5.2853 C   0  0  0  0  0  0  0  0  0  0  0  0
  -13.8326   -7.9474   -4.3549 C   0  0  0  0  0  0  0  0  0  0  0  0
  -13.0806   -7.8645   -3.0209 C   0  0  0  0  0  0  0  0  0  0  0  0
  -13.0027   -9.2430   -2.3500 C   0  0  0  0  0  0  0  0  0  0  0  0
  -12.6455  -13.5696   -0.5713 O   0  0  0  0  0  0  0  0  0  0  0  0
  -11.0389  -12.8669    0.8270 N   0  0  0  0  0  0  0  0  0  0  0  0
  -11.2638  -13.9486    1.7797 C   0  0  0  0  0  0  0  0  0  0  0  0
  -10.1532  -13.8960    2.8525 C   0  0  0  0  0  0  0  0  0  0  0  0
   -8.8506  -14.2213    2.3292 O   0  0  0  0  0  0  0  0  0  0  0  0
   -7.8173  -14.0625    3.2979 C   0  0  0  0  0  0  0  0  0  0  0  0
    0.1160  -13.2559   -6.0658 H   0  0  0  0  0  0  0  0  0  0  0  0
    0.6031  -11.5705   -4.4399 H   0  0  0  0  0  0  0  0  0  0  0  0
   -1.1710  -10.3084   -3.4518 H   0  0  0  0  0  0  0  0  0  0  0  0
   -3.9390  -12.4319   -5.7101 H   0  0  0  0  0  0  0  0  0  0  0  0
   -3.4937   -9.9889   -3.0618 H   0  0  0  0  0  0  0  0  0  0  0  0
   -5.1893  -11.1271   -5.1457 H   0  0  0  0  0  0  0  0  0  0  0  0
   -5.1605   -9.5066   -4.9464 H   0  0  0  0  0  0  0  0  0  0  0  0
   -4.7962  -11.0937   -1.7273 H   0  0  0  0  0  0  0  0  0  0  0  0
   -6.8065  -11.1026   -0.2268 H   0  0  0  0  0  0  0  0  0  0  0  0
   -9.8737   -9.6322   -1.6927 H   0  0  0  0  0  0  0  0  0  0  0  0
   -9.3776  -10.3272   -0.3007 H   0  0  0  0  0  0  0  0  0  0  0  0
   -9.4899  -12.4371   -1.2831 H   0  0  0  0  0  0  0  0  0  0  0  0
  -11.5581  -10.8106   -0.8011 H   0  0  0  0  0  0  0  0  0  0  0  0
  -13.2262  -11.8764   -2.2742 H   0  0  0  0  0  0  0  0  0  0  0  0
  -11.9553  -12.3270   -3.1953 H   0  0  0  0  0  0  0  0  0  0  0  0
  -11.3973   -9.9856   -3.4562 H   0  0  0  0  0  0  0  0  0  0  0  0
  -14.0185  -10.6951   -4.4521 H   0  0  0  0  0  0  0  0  0  0  0  0
  -12.6113  -10.9849   -5.2283 H   0  0  0  0  0  0  0  0  0  0  0  0
  -13.7182   -9.0498   -6.1225 H   0  0  0  0  0  0  0  0  0  0  0  0
  -12.2527   -8.6662   -5.5125 H   0  0  0  0  0  0  0  0  0  0  0  0
  -14.7792   -8.2191   -4.1816 H   0  0  0  0  0  0  0  0  0  0  0  0
  -13.8188   -7.0499   -4.7957 H   0  0  0  0  0  0  0  0  0  0  0  0
  -13.5602   -7.2313   -2.4134 H   0  0  0  0  0  0  0  0  0  0  0  0
  -12.1536   -7.5286   -3.1878 H   0  0  0  0  0  0  0  0  0  0  0  0
  -12.4678   -9.1662   -1.5086 H   0  0  0  0  0  0  0  0  0  0  0  0
  -13.9283   -9.5510   -2.1298 H   0  0  0  0  0  0  0  0  0  0  0  0
  -10.3928  -12.1370    1.0502 H   0  0  0  0  0  0  0  0  0  0  0  0
  -11.2328  -14.8281    1.3049 H   0  0  0  0  0  0  0  0  0  0  0  0
  -12.1576  -13.8353    2.2137 H   0  0  0  0  0  0  0  0  0  0  0  0
  -10.3779  -14.5483    3.5764 H   0  0  0  0  0  0  0  0  0  0  0  0
  -10.1219  -12.9722    3.2341 H   0  0  0  0  0  0  0  0  0  0  0  0
   -6.9366  -14.2993    2.8877 H   0  0  0  0  0  0  0  0  0  0  0  0
   -7.7953  -13.1123    3.6091 H   0  0  0  0  0  0  0  0  0  0  0  0
   -7.9949  -14.6642    4.0765 H   0  0  0  0  0  0  0  0  0  0  0  0
   -9.9001  -11.7681   -2.7151 H   0  0  0  0  0  0  0  0  0  0  0  0
  1  2  2  0  0  0  0
  1  6  1  0  0  0  0
  1 32  1  0  0  0  0
  2  3  1  0  0  0  0
  2 33  1  0  0  0  0
  3  4  2  0  0  0  0
  3 34  1  0  0  0  0
  4  5  1  0  0  0  0
  4  8  1  0  0  0  0
  5  6  2  0  0  0  0
  5 35  1  0  0  0  0
  6  7  1  0  0  0  0
  8  9  1  0  0  0  0
  8 36  1  0  0  0  0
  9 10  1  0  0  0  0
  9 37  1  0  0  0  0
  9 38  1  0  0  0  0
 10 11  2  0  0  0  0
 10 14  1  0  0  0  0
 11 12  1  0  0  0  0
 11 39  1  0  0  0  0
 12 13  2  0  0  0  0
 12 40  1  0  0  0  0
 13 14  1  0  0  0  0
 13 15  1  0  0  0  0
 15 16  1  0  0  0  0
 15 41  1  0  0  0  0
 15 42  1  0  0  0  0
 16 17  1  0  0  0  0
 16 43  1  0  0  0  0
 16 66  1  0  0  0  0
 17 18  1  0  0  0  0
 17 19  1  0  0  0  0
 17 44  1  1  0  0  0
 18 26  2  0  0  0  0
 18 27  1  0  0  0  0
 19 20  1  0  0  0  0
 19 45  1  0  0  0  0
 19 46  1  0  0  0  0
 20 21  1  0  0  0  0
 20 25  1  0  0  0  0
 20 47  1  0  0  0  0
 21 22  1  0  0  0  0
 21 48  1  0  0  0  0
 21 49  1  0  0  0  0
 22 23  1  0  0  0  0
 22 50  1  0  0  0  0
 22 51  1  0  0  0  0
 23 24  1  0  0  0  0
 23 52  1  0  0  0  0
 23 53  1  0  0  0  0
 24 25  1  0  0  0  0
 24 54  1  0  0  0  0
 24 55  1  0  0  0  0
 25 56  1  0  0  0  0
 25 57  1  0  0  0  0
 27 28  1  0  0  0  0
 27 58  1  0  0  0  0
 28 29  1  0  0  0  0
 28 59  1  0  0  0  0
 28 60  1  0  0  0  0
 29 30  1  0  0  0  0
 29 61  1  0  0  0  0
 29 62  1  0  0  0  0
 30 31  1  0  0  0  0
 31 63  1  0  0  0  0
 31 64  1  0  0  0  0
 31 65  1  0  0  0  0
M  CHG  1  16   1
M  END
>  <BIOSOLVEIT.HYDE_ESTIMATED_AFFINITY_LOWER_BOUNDARY [nM]>
351962.524525

>  <BIOSOLVEIT.HYDE_ESTIMATED_AFFINITY_UPPER_BOUNDARY [nM]>
34969557.778654

>  <BIOSOLVEIT.HYDE_LIGAND_EFFICIENCY range: ++, +, 0, -, -->
--

>  <BIOSOLVEIT.HYDE_LIGAND_LIPOPHILIC_EFFICIENCY range: ++, +, 0, -, -->
--

>  <BIOSOLVEIT.INTER_CLASH range: red, yellow, green>
green

>  <BIOSOLVEIT.INTRA_CLASH range: red, yellow, green>
green

>  <BIOSOLVEIT.LOGP>
4.1786

>  <BIOSOLVEIT.MOLECULAR WEIGHT>
465.078

>  <BIOSOLVEIT.MOLECULE_CHECKSUM>
LTE0LjAxMjY7MC40NTIwMg==

>  <BIOSOLVEIT.TORSION_QUALITY range: red, yellow, green, not rotatable>
yellow

>  <BIOSOLVEIT.TPSA>
66.97

$$$$
