PV-001802957486.****
 OpenBabel12172121453D
Hydescorer 1.1.2 b8048283
 41 43  0  0  0  0  0  0  0  0999 V2000
  -13.0730  -15.1012    7.3774 C   0  0  0  0  0  0  0  0  0  0  0  0
  -11.8185  -15.5760    7.7621 C   0  0  0  0  0  0  0  0  0  0  0  0
  -10.6717  -15.1012    7.1062 C   0  0  0  0  0  0  0  0  0  0  0  0
  -10.8057  -14.1610    6.0836 C   0  0  0  0  0  0  0  0  0  0  0  0
  -12.0616  -13.6934    5.7083 C   0  0  0  0  0  0  0  0  0  0  0  0
  -13.1946  -14.1650    6.3576 C   0  0  0  0  0  0  0  0  0  0  0  0
  -11.7456  -16.6044    8.8782 C   0  0  0  0  0  0  0  0  0  0  0  0
  -12.2226  -12.4169    4.3210 Br  0  0  0  0  0  0  0  0  0  0  0  0
   -9.2617  -15.5463    7.4914 C   0  0  0  0  0  0  0  0  0  0  0  0
   -8.2706  -14.6224    6.8068 C   0  0  0  0  0  0  0  0  0  0  0  0
   -7.7101  -15.0454    5.6254 N   0  0  0  0  0  0  0  0  0  0  0  0
   -7.9707  -13.5449    7.2788 O   0  0  0  0  0  0  0  0  0  0  0  0
   -6.7736  -14.3534    4.8267 C   0  0  0  0  0  0  0  0  0  0  0  0
   -5.4158  -14.3380    5.1431 C   0  0  0  0  0  0  0  0  0  0  0  0
   -4.5499  -13.6521    4.2961 C   0  0  0  0  0  0  0  0  0  0  0  0
   -5.0088  -12.9647    3.1698 C   0  0  0  0  0  0  0  0  0  0  0  0
   -6.3737  -12.9729    2.8848 C   0  0  0  0  0  0  0  0  0  0  0  0
   -7.2578  -13.6660    3.7103 C   0  0  0  0  0  0  0  0  0  0  0  0
   -3.1463  -13.6588    4.5858 N   0  0  0  0  0  0  0  0  0  0  0  0
   -2.3263  -14.7179    4.6623 C   0  0  0  0  0  0  0  0  0  0  0  0
   -1.1313  -14.3092    4.9365 N   0  0  0  0  0  0  0  0  0  0  0  0
   -1.1738  -12.9366    5.0413 N   0  0  0  0  0  0  0  0  0  0  0  0
   -2.3952  -12.5827    4.8254 C   0  0  0  0  0  0  0  0  0  0  0  0
   -2.7831  -16.1461    4.4534 C   0  0  0  0  0  0  0  0  0  0  0  0
  -13.8929  -15.4381    7.8402 H   0  0  0  0  0  0  0  0  0  0  0  0
   -9.9906  -13.8197    5.6155 H   0  0  0  0  0  0  0  0  0  0  0  0
  -14.0986  -13.8306    6.0913 H   0  0  0  0  0  0  0  0  0  0  0  0
  -10.7903  -16.8494    9.0438 H   0  0  0  0  0  0  0  0  0  0  0  0
  -12.1405  -16.2196    9.7124 H   0  0  0  0  0  0  0  0  0  0  0  0
  -12.2579  -17.4212    8.6129 H   0  0  0  0  0  0  0  0  0  0  0  0
   -9.1100  -16.4880    7.1913 H   0  0  0  0  0  0  0  0  0  0  0  0
   -9.1479  -15.4900    8.4833 H   0  0  0  0  0  0  0  0  0  0  0  0
   -7.9979  -15.9441    5.2942 H   0  0  0  0  0  0  0  0  0  0  0  0
   -5.0731  -14.8073    5.9569 H   0  0  0  0  0  0  0  0  0  0  0  0
   -4.3690  -12.4748    2.5777 H   0  0  0  0  0  0  0  0  0  0  0  0
   -6.7192  -12.4803    2.0861 H   0  0  0  0  0  0  0  0  0  0  0  0
   -8.2364  -13.6713    3.5040 H   0  0  0  0  0  0  0  0  0  0  0  0
   -2.7298  -11.6404    4.8360 H   0  0  0  0  0  0  0  0  0  0  0  0
   -2.0038  -16.7639    4.5581 H   0  0  0  0  0  0  0  0  0  0  0  0
   -3.4829  -16.3745    5.1301 H   0  0  0  0  0  0  0  0  0  0  0  0
   -3.1642  -16.2431    3.5340 H   0  0  0  0  0  0  0  0  0  0  0  0
  1  2  2  0  0  0  0
  1  6  1  0  0  0  0
  1 25  1  0  0  0  0
  2  3  1  0  0  0  0
  2  7  1  0  0  0  0
  3  4  2  0  0  0  0
  3  9  1  0  0  0  0
  4  5  1  0  0  0  0
  4 26  1  0  0  0  0
  5  6  2  0  0  0  0
  5  8  1  0  0  0  0
  6 27  1  0  0  0  0
  7 28  1  0  0  0  0
  7 29  1  0  0  0  0
  7 30  1  0  0  0  0
  9 10  1  0  0  0  0
  9 31  1  0  0  0  0
  9 32  1  0  0  0  0
 10 11  1  0  0  0  0
 10 12  2  0  0  0  0
 11 13  1  0  0  0  0
 11 33  1  0  0  0  0
 13 14  2  0  0  0  0
 13 18  1  0  0  0  0
 14 15  1  0  0  0  0
 14 34  1  0  0  0  0
 15 16  2  0  0  0  0
 15 19  1  0  0  0  0
 16 17  1  0  0  0  0
 16 35  1  0  0  0  0
 17 18  2  0  0  0  0
 17 36  1  0  0  0  0
 18 37  1  0  0  0  0
 19 20  1  0  0  0  0
 19 23  1  0  0  0  0
 20 21  2  0  0  0  0
 20 24  1  0  0  0  0
 21 22  1  0  0  0  0
 22 23  2  0  0  0  0
 23 38  1  0  0  0  0
 24 39  1  0  0  0  0
 24 40  1  0  0  0  0
 24 41  1  0  0  0  0
M  END
>  <BIOSOLVEIT.HYDE_ESTIMATED_AFFINITY_LOWER_BOUNDARY [nM]>
2001453103.082503

>  <BIOSOLVEIT.HYDE_ESTIMATED_AFFINITY_UPPER_BOUNDARY [nM]>
198856199318.511230

>  <BIOSOLVEIT.HYDE_LIGAND_EFFICIENCY range: ++, +, 0, -, -->
--

>  <BIOSOLVEIT.HYDE_LIGAND_LIPOPHILIC_EFFICIENCY range: ++, +, 0, -, -->
--

>  <BIOSOLVEIT.INTER_CLASH range: red, yellow, green>
green

>  <BIOSOLVEIT.INTRA_CLASH range: red, yellow, green>
green

>  <BIOSOLVEIT.LOGP>
3.82784

>  <BIOSOLVEIT.MOLECULAR WEIGHT>
385.263

>  <BIOSOLVEIT.MOLECULE_CHECKSUM>
Ny40MjAwODsw

>  <BIOSOLVEIT.TORSION_QUALITY range: red, yellow, green, not rotatable>
red

>  <BIOSOLVEIT.TPSA>
59.81

$$$$
