PV-001794469959.****
 OpenBabel12172121453D
Hydescorer 1.1.2 b8048283
 40 42  0  0  0  0  0  0  0  0999 V2000
   -4.1669  -14.0534    2.4421 C   0  0  0  0  0  0  0  0  0  0  0  0
   -4.9767  -14.9554    3.1340 C   0  0  0  0  0  0  0  0  0  0  0  0
   -4.7103  -15.2268    4.4857 C   0  0  0  0  0  0  0  0  0  0  0  0
   -3.6255  -14.6009    5.1045 C   0  0  0  0  0  0  0  0  0  0  0  0
   -2.8258  -13.7020    4.4074 C   0  0  0  0  0  0  0  0  0  0  0  0
   -3.0986  -13.4287    3.0738 C   0  0  0  0  0  0  0  0  0  0  0  0
   -6.1320  -15.5990    2.3862 C   0  0  0  0  0  0  0  0  0  0  0  0
   -1.3788  -12.8513    5.2815 Br  0  0  0  0  0  0  0  0  0  0  0  0
   -5.5610  -16.1839    5.3208 C   0  0  0  0  0  0  0  0  0  0  0  0
   -6.8971  -15.5214    5.6223 C   0  0  0  0  0  0  0  0  0  0  0  0
   -8.0912  -16.1308    5.3811 N   0  0  0  0  0  0  0  0  0  0  0  0
   -6.9744  -14.4098    6.0968 O   0  0  0  0  0  0  0  0  0  0  0  0
   -9.3628  -15.5906    5.6297 C   0  0  0  0  0  0  0  0  0  0  0  0
   -9.8367  -14.5388    4.8490 C   0  0  0  0  0  0  0  0  0  0  0  0
  -11.1063  -14.0359    5.1296 C   0  0  0  0  0  0  0  0  0  0  0  0
  -11.8889  -14.5476    6.1710 C   0  0  0  0  0  0  0  0  0  0  0  0
  -11.3886  -15.5971    6.9396 C   0  0  0  0  0  0  0  0  0  0  0  0
  -10.1247  -16.1215    6.6727 C   0  0  0  0  0  0  0  0  0  0  0  0
  -11.6165  -12.9563    4.3273 N   0  0  0  0  0  0  0  0  0  0  0  0
  -11.8880  -12.9738    3.0210 C   0  0  0  0  0  0  0  0  0  0  0  0
  -12.3142  -11.8150    2.6786 N   0  0  0  0  0  0  0  0  0  0  0  0
  -12.2990  -11.0558    3.8083 N   0  0  0  0  0  0  0  0  0  0  0  0
  -11.8684  -11.7540    4.8170 N   0  0  0  0  0  0  0  0  0  0  0  0
  -11.7021  -14.1816    2.1265 C   0  0  0  0  0  0  0  0  0  0  0  0
   -4.3577  -13.8544    1.4808 H   0  0  0  0  0  0  0  0  0  0  0  0
   -3.4212  -14.8021    6.0625 H   0  0  0  0  0  0  0  0  0  0  0  0
   -2.5267  -12.7827    2.5684 H   0  0  0  0  0  0  0  0  0  0  0  0
   -6.6229  -16.2176    2.9997 H   0  0  0  0  0  0  0  0  0  0  0  0
   -6.7557  -14.8883    2.0607 H   0  0  0  0  0  0  0  0  0  0  0  0
   -5.7781  -16.1148    1.6060 H   0  0  0  0  0  0  0  0  0  0  0  0
   -5.0889  -16.3921    6.1773 H   0  0  0  0  0  0  0  0  0  0  0  0
   -5.7136  -17.0299    4.8101 H   0  0  0  0  0  0  0  0  0  0  0  0
   -8.0589  -17.0504    4.9896 H   0  0  0  0  0  0  0  0  0  0  0  0
   -9.2830  -14.1559    4.1096 H   0  0  0  0  0  0  0  0  0  0  0  0
  -12.7935  -14.1660    6.3607 H   0  0  0  0  0  0  0  0  0  0  0  0
  -11.9378  -15.9751    7.6848 H   0  0  0  0  0  0  0  0  0  0  0  0
   -9.7658  -16.8738    7.2251 H   0  0  0  0  0  0  0  0  0  0  0  0
  -11.9724  -13.9493    1.1922 H   0  0  0  0  0  0  0  0  0  0  0  0
  -10.7413  -14.4589    2.1364 H   0  0  0  0  0  0  0  0  0  0  0  0
  -12.2696  -14.9341    2.4604 H   0  0  0  0  0  0  0  0  0  0  0  0
  1  2  2  0  0  0  0
  1  6  1  0  0  0  0
  1 25  1  0  0  0  0
  2  3  1  0  0  0  0
  2  7  1  0  0  0  0
  3  4  2  0  0  0  0
  3  9  1  0  0  0  0
  4  5  1  0  0  0  0
  4 26  1  0  0  0  0
  5  6  2  0  0  0  0
  5  8  1  0  0  0  0
  6 27  1  0  0  0  0
  7 28  1  0  0  0  0
  7 29  1  0  0  0  0
  7 30  1  0  0  0  0
  9 10  1  0  0  0  0
  9 31  1  0  0  0  0
  9 32  1  0  0  0  0
 10 11  1  0  0  0  0
 10 12  2  0  0  0  0
 11 13  1  0  0  0  0
 11 33  1  0  0  0  0
 13 14  2  0  0  0  0
 13 18  1  0  0  0  0
 14 15  1  0  0  0  0
 14 34  1  0  0  0  0
 15 16  2  0  0  0  0
 15 19  1  0  0  0  0
 16 17  1  0  0  0  0
 16 35  1  0  0  0  0
 17 18  2  0  0  0  0
 17 36  1  0  0  0  0
 18 37  1  0  0  0  0
 19 20  1  0  0  0  0
 19 23  1  0  0  0  0
 20 21  2  0  0  0  0
 20 24  1  0  0  0  0
 21 22  1  0  0  0  0
 22 23  2  0  0  0  0
 24 38  1  0  0  0  0
 24 39  1  0  0  0  0
 24 40  1  0  0  0  0
M  END
>  <BIOSOLVEIT.HYDE_ESTIMATED_AFFINITY_LOWER_BOUNDARY [nM]>
14376733961.184807

>  <BIOSOLVEIT.HYDE_ESTIMATED_AFFINITY_UPPER_BOUNDARY [nM]>
1428413521022.045410

>  <BIOSOLVEIT.HYDE_LIGAND_EFFICIENCY range: ++, +, 0, -, -->
--

>  <BIOSOLVEIT.HYDE_LIGAND_LIPOPHILIC_EFFICIENCY range: ++, +, 0, -, -->
--

>  <BIOSOLVEIT.INTER_CLASH range: red, yellow, green>
green

>  <BIOSOLVEIT.INTRA_CLASH range: red, yellow, green>
green

>  <BIOSOLVEIT.LOGP>
3.22284

>  <BIOSOLVEIT.MOLECULAR WEIGHT>
386.251

>  <BIOSOLVEIT.MOLECULE_CHECKSUM>
MTIuMzA3OTsw

>  <BIOSOLVEIT.TORSION_QUALITY range: red, yellow, green, not rotatable>
yellow

>  <BIOSOLVEIT.TPSA>
72.7

$$$$
