Z1203922336.****
 OpenBabel12172121453D
Hydescorer 1.1.2 b8048283
 41 42  0  0  0  0  0  0  0  0999 V2000
   -3.5059  -16.4816    2.4053 C   0  0  0  0  0  0  0  0  0  0  0  0
   -3.5407  -15.1595    2.8396 C   0  0  0  0  0  0  0  0  0  0  0  0
   -4.7524  -14.4742    2.9382 C   0  0  0  0  0  0  0  0  0  0  0  0
   -5.9356  -15.1476    2.5921 C   0  0  0  0  0  0  0  0  0  0  0  0
   -5.9111  -16.4744    2.1607 C   0  0  0  0  0  0  0  0  0  0  0  0
   -4.6907  -17.1373    2.0669 C   0  0  0  0  0  0  0  0  0  0  0  0
   -4.6370  -18.7853    1.5353 Cl  0  0  0  0  0  0  0  0  0  0  0  0
   -4.7609  -13.0298    3.4085 C   0  0  0  0  0  0  0  0  0  0  0  0
   -7.1651  -14.4520    2.7258 N   0  0  0  0  0  0  0  0  0  0  0  0
   -8.2442  -14.8074    3.4946 C   0  0  0  0  0  0  0  0  0  0  0  0
   -9.4436  -13.8624    3.4451 C   0  0  1  0  0  0  0  0  0  0  0  0
   -8.2407  -15.8455    4.1246 O   0  0  0  0  0  0  0  0  0  0  0  0
  -10.6916  -14.7250    3.1084 C   0  0  0  0  0  0  0  0  0  0  0  0
   -9.6105  -13.1980    4.8347 C   0  0  0  0  0  0  0  0  0  0  0  0
  -11.9519  -13.8434    2.9904 C   0  0  0  0  0  0  0  0  0  0  0  0
  -11.8389  -12.6693    2.0133 C   0  0  0  0  0  0  0  0  0  0  0  0
  -13.2856  -12.3091    1.6590 C   0  0  0  0  0  0  0  0  0  0  0  0
  -14.1295  -13.5361    2.0230 C   0  0  0  0  0  0  0  0  0  0  0  0
  -13.1228  -14.6236    2.3938 C   0  0  0  0  0  0  0  0  0  0  0  0
   -2.6315  -16.9618    2.3356 H   0  0  0  0  0  0  0  0  0  0  0  0
   -2.6888  -14.6961    3.0835 H   0  0  0  0  0  0  0  0  0  0  0  0
   -6.7611  -16.9438    1.9216 H   0  0  0  0  0  0  0  0  0  0  0  0
   -5.7010  -12.6893    3.4226 H   0  0  0  0  0  0  0  0  0  0  0  0
   -4.3732  -12.9766    4.3288 H   0  0  0  0  0  0  0  0  0  0  0  0
   -4.2139  -12.4726    2.7837 H   0  0  0  0  0  0  0  0  0  0  0  0
   -7.2552  -13.6064    2.1996 H   0  0  0  0  0  0  0  0  0  0  0  0
   -9.3055  -13.1646    2.7422 H   0  0  0  0  0  0  0  0  0  0  0  0
  -10.8297  -15.3989    3.8343 H   0  0  0  0  0  0  0  0  0  0  0  0
  -10.5393  -15.1970    2.2401 H   0  0  0  0  0  0  0  0  0  0  0  0
  -10.3935  -12.5763    4.8150 H   0  0  0  0  0  0  0  0  0  0  0  0
   -9.7631  -13.9044    5.5258 H   0  0  0  0  0  0  0  0  0  0  0  0
   -8.7827  -12.6845    5.0602 H   0  0  0  0  0  0  0  0  0  0  0  0
  -12.2055  -13.5012    3.8951 H   0  0  0  0  0  0  0  0  0  0  0  0
  -11.3334  -12.9407    1.1943 H   0  0  0  0  0  0  0  0  0  0  0  0
  -11.3796  -11.8940    2.4469 H   0  0  0  0  0  0  0  0  0  0  0  0
  -13.3646  -12.1108    0.6820 H   0  0  0  0  0  0  0  0  0  0  0  0
  -13.5843  -11.5134    2.1860 H   0  0  0  0  0  0  0  0  0  0  0  0
  -14.6839  -13.8238    1.2422 H   0  0  0  0  0  0  0  0  0  0  0  0
  -14.7266  -13.3325    2.7990 H   0  0  0  0  0  0  0  0  0  0  0  0
  -13.5105  -15.2545    3.0659 H   0  0  0  0  0  0  0  0  0  0  0  0
  -12.8352  -15.1347    1.5839 H   0  0  0  0  0  0  0  0  0  0  0  0
  1  2  2  0  0  0  0
  1  6  1  0  0  0  0
  1 20  1  0  0  0  0
  2  3  1  0  0  0  0
  2 21  1  0  0  0  0
  3  4  2  0  0  0  0
  3  8  1  0  0  0  0
  4  5  1  0  0  0  0
  4  9  1  0  0  0  0
  5  6  2  0  0  0  0
  5 22  1  0  0  0  0
  6  7  1  0  0  0  0
  8 23  1  0  0  0  0
  8 24  1  0  0  0  0
  8 25  1  0  0  0  0
  9 10  1  0  0  0  0
  9 26  1  0  0  0  0
 10 11  1  0  0  0  0
 10 12  2  0  0  0  0
 11 13  1  0  0  0  0
 11 14  1  0  0  0  0
 11 27  1  6  0  0  0
 13 15  1  0  0  0  0
 13 28  1  0  0  0  0
 13 29  1  0  0  0  0
 14 30  1  0  0  0  0
 14 31  1  0  0  0  0
 14 32  1  0  0  0  0
 15 16  1  0  0  0  0
 15 19  1  0  0  0  0
 15 33  1  0  0  0  0
 16 17  1  0  0  0  0
 16 34  1  0  0  0  0
 16 35  1  0  0  0  0
 17 18  1  0  0  0  0
 17 36  1  0  0  0  0
 17 37  1  0  0  0  0
 18 19  1  0  0  0  0
 18 38  1  0  0  0  0
 18 39  1  0  0  0  0
 19 40  1  0  0  0  0
 19 41  1  0  0  0  0
M  END
>  <BIOSOLVEIT.HYDE_ESTIMATED_AFFINITY_LOWER_BOUNDARY [nM]>
1351798655.225566

>  <BIOSOLVEIT.HYDE_ESTIMATED_AFFINITY_UPPER_BOUNDARY [nM]>
134309188862.842773

>  <BIOSOLVEIT.HYDE_LIGAND_EFFICIENCY range: ++, +, 0, -, -->
--

>  <BIOSOLVEIT.HYDE_LIGAND_LIPOPHILIC_EFFICIENCY range: ++, +, 0, -, -->
--

>  <BIOSOLVEIT.INTER_CLASH range: red, yellow, green>
green

>  <BIOSOLVEIT.INTRA_CLASH range: red, yellow, green>
green

>  <BIOSOLVEIT.LOGP>
4.80332

>  <BIOSOLVEIT.MOLECULAR WEIGHT>
279.809

>  <BIOSOLVEIT.MOLECULE_CHECKSUM>
Ni40NDcyNTsw

>  <BIOSOLVEIT.TORSION_QUALITY range: red, yellow, green, not rotatable>
green

>  <BIOSOLVEIT.TPSA>
29.1

$$$$
