Z1315931726.****
 OpenBabel12172121453D
Hydescorer 1.1.2 b8048283
 37 38  0  0  0  0  0  0  0  0999 V2000
  -14.1243  -13.6394   -5.7708 C   0  0  0  0  0  0  0  0  0  0  0  0
  -13.7129  -14.3513   -4.6461 C   0  0  0  0  0  0  0  0  0  0  0  0
  -13.0993  -13.7029   -3.5781 C   0  0  0  0  0  0  0  0  0  0  0  0
  -12.9120  -12.3187   -3.6617 C   0  0  0  0  0  0  0  0  0  0  0  0
  -13.3469  -11.5927   -4.7708 C   0  0  0  0  0  0  0  0  0  0  0  0
  -13.9383  -12.2526   -5.8514 C   0  0  0  0  0  0  0  0  0  0  0  0
  -14.3924  -11.4743   -7.0919 C   0  0  0  0  0  0  0  0  0  0  0  0
  -14.9648  -12.3033   -7.9889 F   0  0  0  0  0  0  0  0  0  0  0  0
  -15.2822  -10.5222   -6.7548 F   0  0  0  0  0  0  0  0  0  0  0  0
  -13.3252  -10.8906   -7.6605 F   0  0  0  0  0  0  0  0  0  0  0  0
  -12.6462  -14.4993   -2.3659 C   0  0  0  0  0  0  0  0  0  0  0  0
  -12.2712  -11.6456   -2.6019 N   0  0  0  0  0  0  0  0  0  0  0  0
  -11.0476  -11.0377   -2.6383 C   0  0  0  0  0  0  0  0  0  0  0  0
  -10.4331  -10.3269   -1.4229 C   0  0  0  0  0  0  0  0  0  0  0  0
   -9.3596   -9.3843   -1.8661 N   0  0  0  0  0  0  0  0  0  0  0  0
   -8.0975   -9.9217   -2.1354 C   0  0  0  0  0  0  0  0  0  0  0  0
   -7.6982  -10.0245   -3.4656 C   0  0  0  0  0  0  0  0  0  0  0  0
   -6.4272  -10.5089   -3.7619 C   0  0  0  0  0  0  0  0  0  0  0  0
   -5.5652  -10.9068   -2.7372 C   0  0  0  0  0  0  0  0  0  0  0  0
   -5.9828  -10.8254   -1.4114 C   0  0  0  0  0  0  0  0  0  0  0  0
   -7.2500  -10.3399   -1.1043 C   0  0  0  0  0  0  0  0  0  0  0  0
   -5.9056  -10.6061   -5.4116 Cl  0  0  0  0  0  0  0  0  0  0  0  0
  -10.4960  -11.0717   -3.7160 O   0  0  0  0  0  0  0  0  0  0  0  0
  -14.5578  -14.1242   -6.5305 H   0  0  0  0  0  0  0  0  0  0  0  0
  -13.8602  -15.3395   -4.6055 H   0  0  0  0  0  0  0  0  0  0  0  0
  -13.2352  -10.5992   -4.7926 H   0  0  0  0  0  0  0  0  0  0  0  0
  -12.2291  -13.8823   -1.6986 H   0  0  0  0  0  0  0  0  0  0  0  0
  -13.4348  -14.9540   -1.9521 H   0  0  0  0  0  0  0  0  0  0  0  0
  -11.9765  -15.1857   -2.6494 H   0  0  0  0  0  0  0  0  0  0  0  0
  -12.7634  -11.6091   -1.7322 H   0  0  0  0  0  0  0  0  0  0  0  0
  -10.0405  -11.0081   -0.8051 H   0  0  0  0  0  0  0  0  0  0  0  0
  -11.1461   -9.8145   -0.9444 H   0  0  0  0  0  0  0  0  0  0  0  0
   -9.5382   -8.4055   -1.9661 H   0  0  0  0  0  0  0  0  0  0  0  0
   -8.3189   -9.7529   -4.2012 H   0  0  0  0  0  0  0  0  0  0  0  0
   -4.6512  -11.2490   -2.9551 H   0  0  0  0  0  0  0  0  0  0  0  0
   -5.3696  -11.1169   -0.6772 H   0  0  0  0  0  0  0  0  0  0  0  0
   -7.5529  -10.2903   -0.1526 H   0  0  0  0  0  0  0  0  0  0  0  0
  1  2  2  0  0  0  0
  1  6  1  0  0  0  0
  1 24  1  0  0  0  0
  2  3  1  0  0  0  0
  2 25  1  0  0  0  0
  3  4  2  0  0  0  0
  3 11  1  0  0  0  0
  4  5  1  0  0  0  0
  4 12  1  0  0  0  0
  5  6  2  0  0  0  0
  5 26  1  0  0  0  0
  6  7  1  0  0  0  0
  7  8  1  0  0  0  0
  7  9  1  0  0  0  0
  7 10  1  0  0  0  0
 11 27  1  0  0  0  0
 11 28  1  0  0  0  0
 11 29  1  0  0  0  0
 12 13  1  0  0  0  0
 12 30  1  0  0  0  0
 13 14  1  0  0  0  0
 13 23  2  0  0  0  0
 14 15  1  0  0  0  0
 14 31  1  0  0  0  0
 14 32  1  0  0  0  0
 15 16  1  0  0  0  0
 15 33  1  0  0  0  0
 16 17  2  0  0  0  0
 16 21  1  0  0  0  0
 17 18  1  0  0  0  0
 17 34  1  0  0  0  0
 18 19  2  0  0  0  0
 18 22  1  0  0  0  0
 19 20  1  0  0  0  0
 19 35  1  0  0  0  0
 20 21  2  0  0  0  0
 20 36  1  0  0  0  0
 21 37  1  0  0  0  0
M  END
>  <BIOSOLVEIT.HYDE_ESTIMATED_AFFINITY_LOWER_BOUNDARY [nM]>
37085.391553

>  <BIOSOLVEIT.HYDE_ESTIMATED_AFFINITY_UPPER_BOUNDARY [nM]>
3684652.917003

>  <BIOSOLVEIT.HYDE_LIGAND_EFFICIENCY range: ++, +, 0, -, -->
-

>  <BIOSOLVEIT.HYDE_LIGAND_LIPOPHILIC_EFFICIENCY range: ++, +, 0, -, -->
--

>  <BIOSOLVEIT.INTER_CLASH range: red, yellow, green>
green

>  <BIOSOLVEIT.INTRA_CLASH range: red, yellow, green>
green

>  <BIOSOLVEIT.LOGP>
4.71782

>  <BIOSOLVEIT.MOLECULAR WEIGHT>
342.747

>  <BIOSOLVEIT.MOLECULE_CHECKSUM>
LTE5LjU5MTswLjg1MTc4NA==

>  <BIOSOLVEIT.TORSION_QUALITY range: red, yellow, green, not rotatable>
yellow

>  <BIOSOLVEIT.TPSA>
41.13

$$$$
