Z28052960.****
 OpenBabel12172121453D
Hydescorer 1.1.2 b8048283
 34 36  0  0  0  0  0  0  0  0999 V2000
   -8.6204   -9.4766   -1.8522 C   0  0  0  0  0  0  0  0  0  0  0  0
   -7.6166  -10.1979   -2.4980 C   0  0  0  0  0  0  0  0  0  0  0  0
   -7.9893  -11.0325   -3.5531 C   0  0  0  0  0  0  0  0  0  0  0  0
   -9.3294  -11.1406   -3.9283 C   0  0  0  0  0  0  0  0  0  0  0  0
  -10.3135  -10.4150   -3.2576 C   0  0  0  0  0  0  0  0  0  0  0  0
   -9.9590   -9.5726   -2.2096 C   0  0  0  0  0  0  0  0  0  0  0  0
   -6.1539  -10.0785   -2.0926 C   0  0  0  0  0  0  0  0  0  0  0  0
   -5.8378  -11.2839   -1.2341 C   0  0  0  0  0  0  0  0  0  0  0  0
   -6.5584  -11.4315   -0.0748 N   0  0  0  0  0  0  0  0  0  0  0  0
   -4.9672  -12.0773   -1.5297 O   0  0  0  0  0  0  0  0  0  0  0  0
   -6.4374  -12.4699    0.8751 C   0  0  0  0  0  0  0  0  0  0  0  0
   -5.4062  -12.4874    1.8165 C   0  0  0  0  0  0  0  0  0  0  0  0
   -5.3562  -13.5477    2.7182 C   0  0  0  0  0  0  0  0  0  0  0  0
   -6.2905  -14.5882    2.6890 C   0  0  0  0  0  0  0  0  0  0  0  0
   -7.3030  -14.5570    1.7334 C   0  0  0  0  0  0  0  0  0  0  0  0
   -7.3792  -13.5010    0.8261 C   0  0  0  0  0  0  0  0  0  0  0  0
   -4.3163  -13.5666    3.7071 N   0  0  0  0  0  0  0  0  0  0  0  0
   -3.4933  -12.5595    3.9503 N   0  0  0  0  0  0  0  0  0  0  0  0
   -2.7031  -12.9846    4.8948 N   0  0  0  0  0  0  0  0  0  0  0  0
   -3.0281  -14.2594    5.2511 N   0  0  0  0  0  0  0  0  0  0  0  0
   -4.0191  -14.5796    4.5059 C   0  0  0  0  0  0  0  0  0  0  0  0
   -8.2910   -8.6314   -0.8380 F   0  0  0  0  0  0  0  0  0  0  0  0
   -7.2922  -11.5559   -4.0430 H   0  0  0  0  0  0  0  0  0  0  0  0
   -9.5858  -11.7432   -4.6840 H   0  0  0  0  0  0  0  0  0  0  0  0
  -11.2720  -10.5003   -3.5298 H   0  0  0  0  0  0  0  0  0  0  0  0
  -10.6551   -9.0455   -1.7222 H   0  0  0  0  0  0  0  0  0  0  0  0
   -6.0088   -9.2374   -1.5716 H   0  0  0  0  0  0  0  0  0  0  0  0
   -5.5710  -10.0722   -2.9050 H   0  0  0  0  0  0  0  0  0  0  0  0
   -7.2425  -10.7281    0.1180 H   0  0  0  0  0  0  0  0  0  0  0  0
   -4.7221  -11.7584    1.8425 H   0  0  0  0  0  0  0  0  0  0  0  0
   -6.2323  -15.3420    3.3436 H   0  0  0  0  0  0  0  0  0  0  0  0
   -7.9775  -15.2944    1.6977 H   0  0  0  0  0  0  0  0  0  0  0  0
   -8.1073  -13.4815    0.1409 H   0  0  0  0  0  0  0  0  0  0  0  0
   -4.4950  -15.4590    4.5246 H   0  0  0  0  0  0  0  0  0  0  0  0
  1  2  2  0  0  0  0
  1  6  1  0  0  0  0
  1 22  1  0  0  0  0
  2  3  1  0  0  0  0
  2  7  1  0  0  0  0
  3  4  2  0  0  0  0
  3 23  1  0  0  0  0
  4  5  1  0  0  0  0
  4 24  1  0  0  0  0
  5  6  2  0  0  0  0
  5 25  1  0  0  0  0
  6 26  1  0  0  0  0
  7  8  1  0  0  0  0
  7 27  1  0  0  0  0
  7 28  1  0  0  0  0
  8  9  1  0  0  0  0
  8 10  2  0  0  0  0
  9 11  1  0  0  0  0
  9 29  1  0  0  0  0
 11 12  2  0  0  0  0
 11 16  1  0  0  0  0
 12 13  1  0  0  0  0
 12 30  1  0  0  0  0
 13 14  2  0  0  0  0
 13 17  1  0  0  0  0
 14 15  1  0  0  0  0
 14 31  1  0  0  0  0
 15 16  2  0  0  0  0
 15 32  1  0  0  0  0
 16 33  1  0  0  0  0
 17 18  1  0  0  0  0
 17 21  1  0  0  0  0
 18 19  2  0  0  0  0
 19 20  1  0  0  0  0
 20 21  2  0  0  0  0
 21 34  1  0  0  0  0
M  END
>  <BIOSOLVEIT.HYDE_ESTIMATED_AFFINITY_LOWER_BOUNDARY [nM]>
13765382630.902460

>  <BIOSOLVEIT.HYDE_ESTIMATED_AFFINITY_UPPER_BOUNDARY [nM]>
1367672151763.366699

>  <BIOSOLVEIT.HYDE_LIGAND_EFFICIENCY range: ++, +, 0, -, -->
--

>  <BIOSOLVEIT.HYDE_LIGAND_LIPOPHILIC_EFFICIENCY range: ++, +, 0, -, -->
--

>  <BIOSOLVEIT.INTER_CLASH range: red, yellow, green>
green

>  <BIOSOLVEIT.INTRA_CLASH range: red, yellow, green>
green

>  <BIOSOLVEIT.LOGP>
1.9826

>  <BIOSOLVEIT.MOLECULAR WEIGHT>
297.292

>  <BIOSOLVEIT.MOLECULE_CHECKSUM>
MTIuMjAwMjsw

>  <BIOSOLVEIT.TORSION_QUALITY range: red, yellow, green, not rotatable>
yellow

>  <BIOSOLVEIT.TPSA>
72.7

$$$$
