Z297320586.****
 OpenBabel12172121453D
Hydescorer 1.1.2 b8048283
 33 34  0  0  0  0  0  0  0  0999 V2000
    0.1659  -16.4233    4.5795 C   0  0  0  0  0  0  0  0  0  0  0  0
    0.5958  -16.8341    3.3246 C   0  0  0  0  0  0  0  0  0  0  0  0
   -0.2390  -16.6242    2.2306 C   0  0  0  0  0  0  0  0  0  0  0  0
   -1.4818  -16.0168    2.4092 C   0  0  0  0  0  0  0  0  0  0  0  0
   -1.9173  -15.6142    3.6886 C   0  0  0  0  0  0  0  0  0  0  0  0
   -1.0647  -15.8184    4.7820 C   0  0  0  0  0  0  0  0  0  0  0  0
    0.9778  -16.6222    5.6415 F   0  0  0  0  0  0  0  0  0  0  0  0
   -3.2259  -14.9878    3.8960 C   0  0  0  0  0  0  0  0  0  0  0  0
   -3.3664  -13.9164    4.4710 O   0  0  0  0  0  0  0  0  0  0  0  0
   -4.3499  -15.6615    3.4657 N   0  0  0  0  0  0  0  0  0  0  0  0
   -5.7016  -15.2301    3.5716 C   0  0  0  0  0  0  0  0  0  0  0  0
   -6.3633  -15.3817    4.7966 C   0  0  0  0  0  0  0  0  0  0  0  0
   -7.6830  -14.9829    4.9697 C   0  0  0  0  0  0  0  0  0  0  0  0
   -8.3697  -14.4291    3.8903 C   0  0  0  0  0  0  0  0  0  0  0  0
   -7.7208  -14.2979    2.6564 C   0  0  0  0  0  0  0  0  0  0  0  0
   -6.3896  -14.6900    2.4836 C   0  0  0  0  0  0  0  0  0  0  0  0
   -5.7126  -15.9342    5.8458 F   0  0  0  0  0  0  0  0  0  0  0  0
   -8.4511  -13.7275    1.5886 N   0  0  0  0  0  0  0  0  0  0  0  0
   -9.3958  -14.3672    0.8359 C   0  0  0  0  0  0  0  0  0  0  0  0
   -9.7037  -15.5171    1.0614 O   0  0  0  0  0  0  0  0  0  0  0  0
  -10.0452  -13.5573   -0.2517 C   0  0  0  0  0  0  0  0  0  0  0  0
    1.4874  -17.2721    3.2091 H   0  0  0  0  0  0  0  0  0  0  0  0
    0.0523  -16.9087    1.3172 H   0  0  0  0  0  0  0  0  0  0  0  0
   -2.0734  -15.8644    1.6174 H   0  0  0  0  0  0  0  0  0  0  0  0
   -1.3414  -15.5307    5.6989 H   0  0  0  0  0  0  0  0  0  0  0  0
   -4.1983  -16.5498    3.0321 H   0  0  0  0  0  0  0  0  0  0  0  0
   -8.1336  -15.0915    5.8557 H   0  0  0  0  0  0  0  0  0  0  0  0
   -9.3174  -14.1281    3.9963 H   0  0  0  0  0  0  0  0  0  0  0  0
   -5.9389  -14.5855    1.5970 H   0  0  0  0  0  0  0  0  0  0  0  0
   -8.2596  -12.7720    1.3643 H   0  0  0  0  0  0  0  0  0  0  0  0
  -10.7145  -14.1227   -0.7339 H   0  0  0  0  0  0  0  0  0  0  0  0
  -10.5056  -12.7664    0.1514 H   0  0  0  0  0  0  0  0  0  0  0  0
   -9.3474  -13.2442   -0.8960 H   0  0  0  0  0  0  0  0  0  0  0  0
  1  2  2  0  0  0  0
  1  6  1  0  0  0  0
  1  7  1  0  0  0  0
  2  3  1  0  0  0  0
  2 22  1  0  0  0  0
  3  4  2  0  0  0  0
  3 23  1  0  0  0  0
  4  5  1  0  0  0  0
  4 24  1  0  0  0  0
  5  6  2  0  0  0  0
  5  8  1  0  0  0  0
  6 25  1  0  0  0  0
  8  9  2  0  0  0  0
  8 10  1  0  0  0  0
 10 11  1  0  0  0  0
 10 26  1  0  0  0  0
 11 12  2  0  0  0  0
 11 16  1  0  0  0  0
 12 13  1  0  0  0  0
 12 17  1  0  0  0  0
 13 14  2  0  0  0  0
 13 27  1  0  0  0  0
 14 15  1  0  0  0  0
 14 28  1  0  0  0  0
 15 16  2  0  0  0  0
 15 18  1  0  0  0  0
 16 29  1  0  0  0  0
 18 19  1  0  0  0  0
 18 30  1  0  0  0  0
 19 20  2  0  0  0  0
 19 21  1  0  0  0  0
 21 31  1  0  0  0  0
 21 32  1  0  0  0  0
 21 33  1  0  0  0  0
M  END
>  <BIOSOLVEIT.HYDE_ESTIMATED_AFFINITY_LOWER_BOUNDARY [nM]>
171354310.147811

>  <BIOSOLVEIT.HYDE_ESTIMATED_AFFINITY_UPPER_BOUNDARY [nM]>
17025063840.046652

>  <BIOSOLVEIT.HYDE_LIGAND_EFFICIENCY range: ++, +, 0, -, -->
--

>  <BIOSOLVEIT.HYDE_LIGAND_LIPOPHILIC_EFFICIENCY range: ++, +, 0, -, -->
--

>  <BIOSOLVEIT.INTER_CLASH range: red, yellow, green>
green

>  <BIOSOLVEIT.INTRA_CLASH range: red, yellow, green>
green

>  <BIOSOLVEIT.LOGP>
3.1755

>  <BIOSOLVEIT.MOLECULAR WEIGHT>
290.268

>  <BIOSOLVEIT.MOLECULE_CHECKSUM>
MS4zMjcwNzsw

>  <BIOSOLVEIT.TORSION_QUALITY range: red, yellow, green, not rotatable>
yellow

>  <BIOSOLVEIT.TPSA>
58.2

$$$$
