PV-001794469965.****
 OpenBabel12172121453D
Hydescorer 1.1.2 b8048283
 40 42  0  0  0  0  0  0  0  0999 V2000
   -6.7895  -16.5068   -9.7188 C   0  0  0  0  0  0  0  0  0  0  0  0
   -5.7315  -16.5438   -8.8075 C   0  0  0  0  0  0  0  0  0  0  0  0
   -4.5310  -15.8885   -9.0857 C   0  0  0  0  0  0  0  0  0  0  0  0
   -4.4224  -15.2057  -10.2962 C   0  0  0  0  0  0  0  0  0  0  0  0
   -5.4609  -15.1512  -11.2146 C   0  0  0  0  0  0  0  0  0  0  0  0
   -6.6528  -15.8053  -10.9193 C   0  0  0  0  0  0  0  0  0  0  0  0
   -8.0904  -17.2133   -9.4033 C   0  0  0  0  0  0  0  0  0  0  0  0
   -3.2704  -14.5597  -10.5999 F   0  0  0  0  0  0  0  0  0  0  0  0
   -3.3875  -15.8991   -8.0785 C   0  0  0  0  0  0  0  0  0  0  0  0
   -3.5152  -14.6638   -7.2065 C   0  0  0  0  0  0  0  0  0  0  0  0
   -4.4519  -13.8981   -7.3143 O   0  0  0  0  0  0  0  0  0  0  0  0
   -2.5049  -14.4017   -6.3114 N   0  0  0  0  0  0  0  0  0  0  0  0
   -2.4367  -13.3117   -5.4181 C   0  0  0  0  0  0  0  0  0  0  0  0
   -3.5220  -12.9816   -4.6084 C   0  0  0  0  0  0  0  0  0  0  0  0
   -3.4097  -11.8721   -3.7732 C   0  0  0  0  0  0  0  0  0  0  0  0
   -2.2301  -11.1264   -3.6959 C   0  0  0  0  0  0  0  0  0  0  0  0
   -1.1461  -11.4930   -4.4916 C   0  0  0  0  0  0  0  0  0  0  0  0
   -1.2462  -12.5832   -5.3552 C   0  0  0  0  0  0  0  0  0  0  0  0
   -4.5417  -11.4780   -2.9761 N   0  0  0  0  0  0  0  0  0  0  0  0
   -5.6261  -10.8109   -3.3811 C   0  0  0  0  0  0  0  0  0  0  0  0
   -6.3995  -10.6404   -2.3741 N   0  0  0  0  0  0  0  0  0  0  0  0
   -5.7710  -11.2141   -1.3116 N   0  0  0  0  0  0  0  0  0  0  0  0
   -4.6331  -11.7239   -1.6787 N   0  0  0  0  0  0  0  0  0  0  0  0
   -5.8635  -10.3481   -4.8065 C   0  0  0  0  0  0  0  0  0  0  0  0
   -5.8351  -17.0443   -7.9480 H   0  0  0  0  0  0  0  0  0  0  0  0
   -5.3545  -14.6505  -12.0736 H   0  0  0  0  0  0  0  0  0  0  0  0
   -7.4133  -15.7734  -11.5678 H   0  0  0  0  0  0  0  0  0  0  0  0
   -8.7317  -17.0842  -10.1596 H   0  0  0  0  0  0  0  0  0  0  0  0
   -7.9170  -18.1900   -9.2763 H   0  0  0  0  0  0  0  0  0  0  0  0
   -8.4818  -16.8326   -8.5656 H   0  0  0  0  0  0  0  0  0  0  0  0
   -2.5113  -15.8846   -8.5603 H   0  0  0  0  0  0  0  0  0  0  0  0
   -3.4427  -16.7212   -7.5117 H   0  0  0  0  0  0  0  0  0  0  0  0
   -1.7422  -15.0482   -6.2917 H   0  0  0  0  0  0  0  0  0  0  0  0
   -4.3599  -13.5270   -4.6265 H   0  0  0  0  0  0  0  0  0  0  0  0
   -2.1650  -10.3419   -3.0792 H   0  0  0  0  0  0  0  0  0  0  0  0
   -0.2937  -10.9723   -4.4430 H   0  0  0  0  0  0  0  0  0  0  0  0
   -0.4684  -12.8428   -5.9276 H   0  0  0  0  0  0  0  0  0  0  0  0
   -6.7416   -9.8728   -4.8607 H   0  0  0  0  0  0  0  0  0  0  0  0
   -5.1303   -9.7261   -5.0814 H   0  0  0  0  0  0  0  0  0  0  0  0
   -5.8749  -11.1402   -5.4167 H   0  0  0  0  0  0  0  0  0  0  0  0
  1  2  2  0  0  0  0
  1  6  1  0  0  0  0
  1  7  1  0  0  0  0
  2  3  1  0  0  0  0
  2 25  1  0  0  0  0
  3  4  2  0  0  0  0
  3  9  1  0  0  0  0
  4  5  1  0  0  0  0
  4  8  1  0  0  0  0
  5  6  2  0  0  0  0
  5 26  1  0  0  0  0
  6 27  1  0  0  0  0
  7 28  1  0  0  0  0
  7 29  1  0  0  0  0
  7 30  1  0  0  0  0
  9 10  1  0  0  0  0
  9 31  1  0  0  0  0
  9 32  1  0  0  0  0
 10 11  2  0  0  0  0
 10 12  1  0  0  0  0
 12 13  1  0  0  0  0
 12 33  1  0  0  0  0
 13 14  2  0  0  0  0
 13 18  1  0  0  0  0
 14 15  1  0  0  0  0
 14 34  1  0  0  0  0
 15 16  2  0  0  0  0
 15 19  1  0  0  0  0
 16 17  1  0  0  0  0
 16 35  1  0  0  0  0
 17 18  2  0  0  0  0
 17 36  1  0  0  0  0
 18 37  1  0  0  0  0
 19 20  1  0  0  0  0
 19 23  1  0  0  0  0
 20 21  2  0  0  0  0
 20 24  1  0  0  0  0
 21 22  1  0  0  0  0
 22 23  2  0  0  0  0
 24 38  1  0  0  0  0
 24 39  1  0  0  0  0
 24 40  1  0  0  0  0
M  END
>  <BIOSOLVEIT.HYDE_ESTIMATED_AFFINITY_LOWER_BOUNDARY [nM]>
47235006.413830

>  <BIOSOLVEIT.HYDE_ESTIMATED_AFFINITY_UPPER_BOUNDARY [nM]>
4693077162.674097

>  <BIOSOLVEIT.HYDE_LIGAND_EFFICIENCY range: ++, +, 0, -, -->
--

>  <BIOSOLVEIT.HYDE_LIGAND_LIPOPHILIC_EFFICIENCY range: ++, +, 0, -, -->
--

>  <BIOSOLVEIT.INTER_CLASH range: red, yellow, green>
green

>  <BIOSOLVEIT.INTRA_CLASH range: red, yellow, green>
green

>  <BIOSOLVEIT.LOGP>
2.59944

>  <BIOSOLVEIT.MOLECULAR WEIGHT>
325.345

>  <BIOSOLVEIT.MOLECULE_CHECKSUM>
LTEuODY3MzE7MC4wNzc4MDQ3

>  <BIOSOLVEIT.TORSION_QUALITY range: red, yellow, green, not rotatable>
green

>  <BIOSOLVEIT.TPSA>
72.7

$$$$
