PV-001799426692.****
 OpenBabel12172121453D
Hydescorer 1.1.2 b8048283
 55 58  0  0  0  0  0  0  0  0999 V2000
   -4.7768  -15.3729    3.7941 C   0  0  0  0  0  0  0  0  0  0  0  0
   -6.1248  -15.6591    3.6141 C   0  0  0  0  0  0  0  0  0  0  0  0
   -7.0468  -14.6366    3.3478 C   0  0  0  0  0  0  0  0  0  0  0  0
   -6.5760  -13.3142    3.2811 C   0  0  0  0  0  0  0  0  0  0  0  0
   -5.2269  -13.0330    3.4597 C   0  0  0  0  0  0  0  0  0  0  0  0
   -4.3092  -14.0577    3.7164 C   0  0  0  0  0  0  0  0  0  0  0  0
   -2.8927  -13.7581    3.9018 C   0  0  0  0  0  0  0  0  0  0  0  0
   -8.4641  -14.9672    3.1529 C   0  0  0  0  0  0  0  0  0  0  0  0
   -9.0516  -14.7714    1.9271 N   0  0  0  0  0  0  0  0  0  0  0  0
   -9.1772  -15.4244    4.0353 O   0  0  0  0  0  0  0  0  0  0  0  0
  -10.4790  -15.0890    1.6778 C   0  0  1  0  0  0  0  0  0  0  0  0
  -11.3992  -14.0237    2.3061 C   0  0  0  0  0  0  0  0  0  0  0  0
  -11.1433  -12.8951    1.4072 N   0  3  1  0  0  0  0  0  0  0  0  0
  -11.2915  -13.4536    0.0562 C   0  0  0  0  0  0  0  0  0  0  0  0
  -10.7250  -14.8823    0.1796 C   0  0  0  0  0  0  0  0  0  0  0  0
  -12.1285  -11.8273    1.6558 C   0  0  0  0  0  0  0  0  0  0  0  0
  -13.4627  -12.5402    1.9550 C   0  0  0  0  0  0  0  0  0  0  0  0
  -13.9856  -12.2479    3.3678 C   0  0  0  0  0  0  0  0  0  0  0  0
  -15.4922  -12.5014    3.2690 C   0  0  0  0  0  0  0  0  0  0  0  0
  -15.8502  -12.3809    1.7832 C   0  0  0  0  0  0  0  0  0  0  0  0
  -14.5652  -11.9407    1.0815 C   0  0  0  0  0  0  0  0  0  0  0  0
   -1.9405  -14.2253    2.9887 C   0  0  0  0  0  0  0  0  0  0  0  0
   -0.5906  -13.9388    3.1646 C   0  0  0  0  0  0  0  0  0  0  0  0
   -0.1756  -13.1810    4.2556 C   0  0  0  0  0  0  0  0  0  0  0  0
   -1.1122  -12.7121    5.1713 C   0  0  0  0  0  0  0  0  0  0  0  0
   -2.4618  -12.9986    4.9968 C   0  0  0  0  0  0  0  0  0  0  0  0
   -4.1342  -16.1159    3.9813 H   0  0  0  0  0  0  0  0  0  0  0  0
   -6.4412  -16.6057    3.6753 H   0  0  0  0  0  0  0  0  0  0  0  0
   -7.2180  -12.5685    3.1033 H   0  0  0  0  0  0  0  0  0  0  0  0
   -4.9080  -12.0868    3.4042 H   0  0  0  0  0  0  0  0  0  0  0  0
   -8.4998  -14.4032    1.1789 H   0  0  0  0  0  0  0  0  0  0  0  0
  -10.7164  -16.0140    1.9744 H   0  0  0  0  0  0  0  0  0  0  0  0
  -11.1344  -13.8146    3.2474 H   0  0  0  0  0  0  0  0  0  0  0  0
  -12.3588  -14.3042    2.2842 H   0  0  0  0  0  0  0  0  0  0  0  0
  -10.7686  -12.9199   -0.6085 H   0  0  0  0  0  0  0  0  0  0  0  0
  -12.2534  -13.4749   -0.2162 H   0  0  0  0  0  0  0  0  0  0  0  0
  -11.3840  -15.5517   -0.1632 H   0  0  0  0  0  0  0  0  0  0  0  0
   -9.8691  -14.9654   -0.3309 H   0  0  0  0  0  0  0  0  0  0  0  0
  -12.2197  -11.2441    0.8486 H   0  0  0  0  0  0  0  0  0  0  0  0
  -11.8484  -11.2716    2.4386 H   0  0  0  0  0  0  0  0  0  0  0  0
  -13.3826  -13.5251    1.8015 H   0  0  0  0  0  0  0  0  0  0  0  0
  -13.8014  -11.2994    3.6251 H   0  0  0  0  0  0  0  0  0  0  0  0
  -13.5654  -12.8621    4.0358 H   0  0  0  0  0  0  0  0  0  0  0  0
  -15.9939  -11.8206    3.8027 H   0  0  0  0  0  0  0  0  0  0  0  0
  -15.7124  -13.4170    3.6054 H   0  0  0  0  0  0  0  0  0  0  0  0
  -16.5699  -11.6991    1.6523 H   0  0  0  0  0  0  0  0  0  0  0  0
  -16.1578  -13.2630    1.4261 H   0  0  0  0  0  0  0  0  0  0  0  0
  -14.5226  -12.3048    0.1511 H   0  0  0  0  0  0  0  0  0  0  0  0
  -14.4966  -10.9435    1.0527 H   0  0  0  0  0  0  0  0  0  0  0  0
   -2.2331  -14.7700    2.2028 H   0  0  0  0  0  0  0  0  0  0  0  0
    0.0820  -14.2776    2.5067 H   0  0  0  0  0  0  0  0  0  0  0  0
    0.7945  -12.9739    4.3813 H   0  0  0  0  0  0  0  0  0  0  0  0
   -0.8146  -12.1683    5.9559 H   0  0  0  0  0  0  0  0  0  0  0  0
   -3.1303  -12.6595    5.6588 H   0  0  0  0  0  0  0  0  0  0  0  0
  -10.2147  -12.5488    1.5401 H   0  0  0  0  0  0  0  0  0  0  0  0
  1  2  2  0  0  0  0
  1  6  1  0  0  0  0
  1 27  1  0  0  0  0
  2  3  1  0  0  0  0
  2 28  1  0  0  0  0
  3  4  2  0  0  0  0
  3  8  1  0  0  0  0
  4  5  1  0  0  0  0
  4 29  1  0  0  0  0
  5  6  2  0  0  0  0
  5 30  1  0  0  0  0
  6  7  1  0  0  0  0
  7 22  2  0  0  0  0
  7 26  1  0  0  0  0
  8  9  1  0  0  0  0
  8 10  2  0  0  0  0
  9 11  1  0  0  0  0
  9 31  1  0  0  0  0
 11 12  1  0  0  0  0
 11 15  1  0  0  0  0
 11 32  1  1  0  0  0
 12 13  1  0  0  0  0
 12 33  1  0  0  0  0
 12 34  1  0  0  0  0
 13 14  1  0  0  0  0
 13 16  1  0  0  0  0
 13 55  1  1  0  0  0
 14 15  1  0  0  0  0
 14 35  1  0  0  0  0
 14 36  1  0  0  0  0
 15 37  1  0  0  0  0
 15 38  1  0  0  0  0
 16 17  1  0  0  0  0
 16 39  1  0  0  0  0
 16 40  1  0  0  0  0
 17 18  1  0  0  0  0
 17 21  1  0  0  0  0
 17 41  1  0  0  0  0
 18 19  1  0  0  0  0
 18 42  1  0  0  0  0
 18 43  1  0  0  0  0
 19 20  1  0  0  0  0
 19 44  1  0  0  0  0
 19 45  1  0  0  0  0
 20 21  1  0  0  0  0
 20 46  1  0  0  0  0
 20 47  1  0  0  0  0
 21 48  1  0  0  0  0
 21 49  1  0  0  0  0
 22 23  1  0  0  0  0
 22 50  1  0  0  0  0
 23 24  2  0  0  0  0
 23 51  1  0  0  0  0
 24 25  1  0  0  0  0
 24 52  1  0  0  0  0
 25 26  2  0  0  0  0
 25 53  1  0  0  0  0
 26 54  1  0  0  0  0
M  CHG  1  13   1
M  END
>  <BIOSOLVEIT.HYDE_ESTIMATED_AFFINITY_LOWER_BOUNDARY [nM]>
21822998982.459324

>  <BIOSOLVEIT.HYDE_ESTIMATED_AFFINITY_UPPER_BOUNDARY [nM]>
2168243976688.727295

>  <BIOSOLVEIT.HYDE_LIGAND_EFFICIENCY range: ++, +, 0, -, -->
--

>  <BIOSOLVEIT.HYDE_LIGAND_LIPOPHILIC_EFFICIENCY range: ++, +, 0, -, -->
--

>  <BIOSOLVEIT.INTER_CLASH range: red, yellow, green>
green

>  <BIOSOLVEIT.INTRA_CLASH range: red, yellow, green>
green

>  <BIOSOLVEIT.LOGP>
2.9308

>  <BIOSOLVEIT.MOLECULAR WEIGHT>
349.495

>  <BIOSOLVEIT.MOLECULE_CHECKSUM>
MTMuMzQyNTsw

>  <BIOSOLVEIT.TORSION_QUALITY range: red, yellow, green, not rotatable>
red

>  <BIOSOLVEIT.TPSA>
33.54

$$$$
