PV-000117881128.****
 OpenBabel12172121453D
Hydescorer 1.1.2 b8048283
 45 47  0  0  0  0  0  0  0  0999 V2000
  -10.8657  -10.6726   -2.4494 C   0  0  0  0  0  0  0  0  0  0  0  0
  -10.8462  -11.8123   -1.6537 C   0  0  0  0  0  0  0  0  0  0  0  0
   -9.6372  -12.3181   -1.1531 C   0  0  0  0  0  0  0  0  0  0  0  0
   -8.4437  -11.6534   -1.4853 C   0  0  0  0  0  0  0  0  0  0  0  0
   -8.4673  -10.5121   -2.2812 C   0  0  0  0  0  0  0  0  0  0  0  0
   -9.6771  -10.0213   -2.7622 C   0  0  0  0  0  0  0  0  0  0  0  0
   -9.6452  -13.5184   -0.3075 C   0  0  0  0  0  0  0  0  0  0  0  0
   -8.9517  -13.5240    0.8781 N   0  0  0  0  0  0  0  0  0  0  0  0
  -10.2495  -14.5419   -0.5948 O   0  0  0  0  0  0  0  0  0  0  0  0
   -8.9250  -14.7078    1.7706 C   0  0  1  0  0  0  0  0  0  0  0  0
   -7.5503  -15.4034    1.7262 C   0  0  0  0  0  0  0  0  0  0  0  0
   -6.7348  -14.4108    2.4311 N   0  3  1  0  0  0  0  0  0  0  0  0
   -7.4906  -14.1034    3.6521 C   0  0  0  0  0  0  0  0  0  0  0  0
   -8.9648  -14.1780    3.2079 C   0  0  0  0  0  0  0  0  0  0  0  0
   -5.4149  -14.9842    2.7472 C   0  0  0  0  0  0  0  0  0  0  0  0
   -4.6965  -13.9387    3.6253 C   0  0  0  0  0  0  0  0  0  0  0  0
   -3.6129  -14.5584    4.5168 C   0  0  0  0  0  0  0  0  0  0  0  0
   -2.6745  -13.3901    4.8268 C   0  0  0  0  0  0  0  0  0  0  0  0
   -2.8893  -12.3618    3.7103 C   0  0  0  0  0  0  0  0  0  0  0  0
   -3.8743  -13.0056    2.7354 C   0  0  0  0  0  0  0  0  0  0  0  0
  -11.7348  -10.3207   -2.7971 H   0  0  0  0  0  0  0  0  0  0  0  0
  -11.7044  -12.2772   -1.4356 H   0  0  0  0  0  0  0  0  0  0  0  0
   -7.5703  -12.0038   -1.1468 H   0  0  0  0  0  0  0  0  0  0  0  0
   -7.6133  -10.0439   -2.5079 H   0  0  0  0  0  0  0  0  0  0  0  0
   -9.6922   -9.2001   -3.3327 H   0  0  0  0  0  0  0  0  0  0  0  0
   -8.4484  -12.7031    1.1481 H   0  0  0  0  0  0  0  0  0  0  0  0
   -9.6752  -15.3412    1.5806 H   0  0  0  0  0  0  0  0  0  0  0  0
   -7.2355  -15.5420    0.7873 H   0  0  0  0  0  0  0  0  0  0  0  0
   -7.5633  -16.2805    2.2063 H   0  0  0  0  0  0  0  0  0  0  0  0
   -7.2665  -13.1885    3.9879 H   0  0  0  0  0  0  0  0  0  0  0  0
   -7.3003  -14.7767    4.3667 H   0  0  0  0  0  0  0  0  0  0  0  0
   -9.4776  -14.8019    3.7976 H   0  0  0  0  0  0  0  0  0  0  0  0
   -9.3858  -13.2714    3.2360 H   0  0  0  0  0  0  0  0  0  0  0  0
   -4.8969  -15.1477    1.9075 H   0  0  0  0  0  0  0  0  0  0  0  0
   -5.5202  -15.8442    3.2466 H   0  0  0  0  0  0  0  0  0  0  0  0
   -5.3543  -13.4209    4.1722 H   0  0  0  0  0  0  0  0  0  0  0  0
   -3.1269  -15.2856    4.0320 H   0  0  0  0  0  0  0  0  0  0  0  0
   -4.0115  -14.9265    5.3568 H   0  0  0  0  0  0  0  0  0  0  0  0
   -1.7242  -13.7011    4.8336 H   0  0  0  0  0  0  0  0  0  0  0  0
   -2.9006  -12.9899    5.7149 H   0  0  0  0  0  0  0  0  0  0  0  0
   -2.0244  -12.1616    3.2501 H   0  0  0  0  0  0  0  0  0  0  0  0
   -3.2715  -11.5167    4.0841 H   0  0  0  0  0  0  0  0  0  0  0  0
   -4.4567  -12.3148    2.3070 H   0  0  0  0  0  0  0  0  0  0  0  0
   -3.3915  -13.5205    2.0270 H   0  0  0  0  0  0  0  0  0  0  0  0
   -6.6303  -13.5882    1.8721 H   0  0  0  0  0  0  0  0  0  0  0  0
  1  2  2  0  0  0  0
  1  6  1  0  0  0  0
  1 21  1  0  0  0  0
  2  3  1  0  0  0  0
  2 22  1  0  0  0  0
  3  4  2  0  0  0  0
  3  7  1  0  0  0  0
  4  5  1  0  0  0  0
  4 23  1  0  0  0  0
  5  6  2  0  0  0  0
  5 24  1  0  0  0  0
  6 25  1  0  0  0  0
  7  8  1  0  0  0  0
  7  9  2  0  0  0  0
  8 10  1  0  0  0  0
  8 26  1  0  0  0  0
 10 11  1  0  0  0  0
 10 14  1  0  0  0  0
 10 27  1  6  0  0  0
 11 12  1  0  0  0  0
 11 28  1  0  0  0  0
 11 29  1  0  0  0  0
 12 13  1  0  0  0  0
 12 15  1  0  0  0  0
 12 45  1  6  0  0  0
 13 14  1  0  0  0  0
 13 30  1  0  0  0  0
 13 31  1  0  0  0  0
 14 32  1  0  0  0  0
 14 33  1  0  0  0  0
 15 16  1  0  0  0  0
 15 34  1  0  0  0  0
 15 35  1  0  0  0  0
 16 17  1  0  0  0  0
 16 20  1  0  0  0  0
 16 36  1  0  0  0  0
 17 18  1  0  0  0  0
 17 37  1  0  0  0  0
 17 38  1  0  0  0  0
 18 19  1  0  0  0  0
 18 39  1  0  0  0  0
 18 40  1  0  0  0  0
 19 20  1  0  0  0  0
 19 41  1  0  0  0  0
 19 42  1  0  0  0  0
 20 43  1  0  0  0  0
 20 44  1  0  0  0  0
M  CHG  1  12   1
M  END
>  <BIOSOLVEIT.HYDE_ESTIMATED_AFFINITY_LOWER_BOUNDARY [nM]>
2643700609663.615234

>  <BIOSOLVEIT.HYDE_ESTIMATED_AFFINITY_UPPER_BOUNDARY [nM]>
262667286365123.875000

>  <BIOSOLVEIT.HYDE_LIGAND_EFFICIENCY range: ++, +, 0, -, -->
--

>  <BIOSOLVEIT.HYDE_LIGAND_LIPOPHILIC_EFFICIENCY range: ++, +, 0, -, -->
--

>  <BIOSOLVEIT.INTER_CLASH range: red, yellow, green>
green

>  <BIOSOLVEIT.INTRA_CLASH range: red, yellow, green>
green

>  <BIOSOLVEIT.LOGP>
1.2638

>  <BIOSOLVEIT.MOLECULAR WEIGHT>
273.398

>  <BIOSOLVEIT.MOLECULE_CHECKSUM>
MjUuMjM0OzA=

>  <BIOSOLVEIT.TORSION_QUALITY range: red, yellow, green, not rotatable>
yellow

>  <BIOSOLVEIT.TPSA>
33.54

$$$$
