G1.sdf
 OpenBabel12172121453D
Hydescorer 1.1.2 b8048283
 69 72  0  0  0  0  0  0  0  0999 V2000
   -5.2766  -10.7099   -3.4249 C   0  0  0  0  0  0  0  0  0  0  0  0
   -4.8525  -11.1343   -2.2115 C   0  0  0  0  0  0  0  0  0  0  0  0
   -5.9395  -11.0441   -1.3416 C   0  0  0  0  0  0  0  0  0  0  0  0
   -6.9971  -10.5625   -2.0582 C   0  0  0  0  0  0  0  0  0  0  0  0
   -6.5774  -10.3581   -3.3521 O   0  0  0  0  0  0  0  0  0  0  0  0
   -8.3674  -10.2694   -1.6508 C   0  0  0  0  0  0  0  0  0  0  0  0
   -9.2773  -11.2878   -1.6091 N   0  0  0  0  0  0  0  0  0  0  0  0
   -8.7684   -9.1584   -1.3046 O   0  0  0  0  0  0  0  0  0  0  0  0
  -10.6864  -11.0549   -1.2030 C   0  0  2  0  0  0  0  0  0  0  0  0
  -11.2600  -12.3877   -0.6828 C   0  0  0  0  0  0  0  0  0  0  0  0
  -11.4646  -10.6004   -2.4644 C   0  0  0  0  0  0  0  0  0  0  0  0
  -12.6491   -9.6799   -2.0855 C   0  0  0  0  0  0  0  0  0  0  0  0
  -12.6576   -8.4865   -3.0600 C   0  0  0  0  0  0  0  0  0  0  0  0
  -13.8185   -7.5258   -2.7688 C   0  0  0  0  0  0  0  0  0  0  0  0
  -15.1630   -8.2620   -2.8305 C   0  0  0  0  0  0  0  0  0  0  0  0
  -15.1736   -9.4485   -1.8585 C   0  0  0  0  0  0  0  0  0  0  0  0
  -14.0086  -10.4082   -2.1404 C   0  0  0  0  0  0  0  0  0  0  0  0
  -10.8435  -12.7748    0.5290 N   0  0  0  0  0  0  0  0  0  0  0  0
  -11.9548  -13.1428   -1.3649 O   0  0  0  0  0  0  0  0  0  0  0  0
  -11.2908  -14.0122    1.1671 C   0  0  0  0  0  0  0  0  0  0  0  0
  -11.4750  -13.7395    2.6717 C   0  0  2  0  0  0  0  0  0  0  0  0
  -10.3310  -14.4068    3.4651 C   0  0  0  0  0  0  0  0  0  0  0  0
  -10.4631  -13.8581    4.8288 N   0  0  0  0  0  0  0  0  0  0  0  0
  -11.7650  -14.2485    5.4264 C   0  0  0  0  0  0  0  0  0  0  0  0
  -12.9100  -13.7267    4.5170 C   0  0  0  0  0  0  0  0  0  0  0  0
  -12.7057  -14.2345    3.1929 O   0  0  0  0  0  0  0  0  0  0  0  0
   -9.1564  -13.8974    5.8374 S   0  0  0  0  0  0  0  0  0  0  0  0
   -9.0676  -15.5801    6.5052 C   0  0  0  0  0  0  0  0  0  0  0  0
   -7.9866  -13.6555    5.0710 O   0  0  0  0  0  0  0  0  0  0  0  0
   -9.4034  -13.0001    6.9110 O   0  0  0  0  0  0  0  0  0  0  0  0
   -8.3882  -16.6216    5.8477 C   0  0  0  0  0  0  0  0  0  0  0  0
   -8.3533  -17.8950    6.4276 C   0  0  0  0  0  0  0  0  0  0  0  0
   -8.9880  -18.1445    7.6360 C   0  0  0  0  0  0  0  0  0  0  0  0
   -9.6684  -17.1228    8.2826 C   0  0  0  0  0  0  0  0  0  0  0  0
   -9.7068  -15.8518    7.7207 C   0  0  0  0  0  0  0  0  0  0  0  0
   -7.7386  -16.4430    4.5725 C   0  0  0  0  0  0  0  0  0  0  0  0
   -7.2307  -16.3535    3.5514 N   0  0  0  0  0  0  0  0  0  0  0  0
   -4.7124  -10.6640   -4.2492 H   0  0  0  0  0  0  0  0  0  0  0  0
   -3.9328  -11.4527   -1.9818 H   0  0  0  0  0  0  0  0  0  0  0  0
   -5.9433  -11.2874   -0.3717 H   0  0  0  0  0  0  0  0  0  0  0  0
   -8.9874  -12.2119   -1.8580 H   0  0  0  0  0  0  0  0  0  0  0  0
  -10.7335  -10.3533   -0.4921 H   0  0  0  0  0  0  0  0  0  0  0  0
  -11.8165  -11.4070   -2.9395 H   0  0  0  0  0  0  0  0  0  0  0  0
  -10.8438  -10.1017   -3.0693 H   0  0  0  0  0  0  0  0  0  0  0  0
  -12.5054   -9.3364   -1.1574 H   0  0  0  0  0  0  0  0  0  0  0  0
  -12.7487   -8.8313   -3.9943 H   0  0  0  0  0  0  0  0  0  0  0  0
  -11.7948   -7.9890   -2.9709 H   0  0  0  0  0  0  0  0  0  0  0  0
  -13.8150   -6.7919   -3.4481 H   0  0  0  0  0  0  0  0  0  0  0  0
  -13.6999   -7.1355   -1.8558 H   0  0  0  0  0  0  0  0  0  0  0  0
  -15.3115   -8.5977   -3.7607 H   0  0  0  0  0  0  0  0  0  0  0  0
  -15.8963   -7.6284   -2.5838 H   0  0  0  0  0  0  0  0  0  0  0  0
  -16.0363   -9.9444   -1.9587 H   0  0  0  0  0  0  0  0  0  0  0  0
  -15.0936   -9.1044   -0.9230 H   0  0  0  0  0  0  0  0  0  0  0  0
  -14.0148  -11.1366   -1.4553 H   0  0  0  0  0  0  0  0  0  0  0  0
  -14.1279  -10.8055   -3.0503 H   0  0  0  0  0  0  0  0  0  0  0  0
  -10.1970  -12.1912    1.0204 H   0  0  0  0  0  0  0  0  0  0  0  0
  -10.6055  -14.7283    1.0343 H   0  0  0  0  0  0  0  0  0  0  0  0
  -12.1597  -14.3041    0.7673 H   0  0  0  0  0  0  0  0  0  0  0  0
  -11.4369  -12.7521    2.8249 H   0  0  0  0  0  0  0  0  0  0  0  0
   -9.4424  -14.1695    3.0725 H   0  0  0  0  0  0  0  0  0  0  0  0
  -10.4377  -15.4011    3.4716 H   0  0  0  0  0  0  0  0  0  0  0  0
  -11.8503  -13.8464    6.3380 H   0  0  0  0  0  0  0  0  0  0  0  0
  -11.8179  -15.2447    5.4951 H   0  0  0  0  0  0  0  0  0  0  0  0
  -12.8986  -12.7269    4.5004 H   0  0  0  0  0  0  0  0  0  0  0  0
  -13.7909  -14.0443    4.8680 H   0  0  0  0  0  0  0  0  0  0  0  0
   -7.8647  -18.6348    5.9650 H   0  0  0  0  0  0  0  0  0  0  0  0
   -8.9550  -19.0586    8.0399 H   0  0  0  0  0  0  0  0  0  0  0  0
  -10.1305  -17.3005    9.1515 H   0  0  0  0  0  0  0  0  0  0  0  0
  -10.1988  -15.1199    8.1923 H   0  0  0  0  0  0  0  0  0  0  0  0
  1  2  2  0  0  0  0
  1  5  1  0  0  0  0
  1 38  1  0  0  0  0
  2  3  1  0  0  0  0
  2 39  1  0  0  0  0
  3  4  2  0  0  0  0
  3 40  1  0  0  0  0
  4  5  1  0  0  0  0
  4  6  1  0  0  0  0
  6  7  1  0  0  0  0
  6  8  2  0  0  0  0
  7  9  1  0  0  0  0
  7 41  1  0  0  0  0
  9 10  1  0  0  0  0
  9 11  1  0  0  0  0
  9 42  1  1  0  0  0
 10 18  1  0  0  0  0
 10 19  2  0  0  0  0
 11 12  1  0  0  0  0
 11 43  1  0  0  0  0
 11 44  1  0  0  0  0
 12 13  1  0  0  0  0
 12 17  1  0  0  0  0
 12 45  1  0  0  0  0
 13 14  1  0  0  0  0
 13 46  1  0  0  0  0
 13 47  1  0  0  0  0
 14 15  1  0  0  0  0
 14 48  1  0  0  0  0
 14 49  1  0  0  0  0
 15 16  1  0  0  0  0
 15 50  1  0  0  0  0
 15 51  1  0  0  0  0
 16 17  1  0  0  0  0
 16 52  1  0  0  0  0
 16 53  1  0  0  0  0
 17 54  1  0  0  0  0
 17 55  1  0  0  0  0
 18 20  1  0  0  0  0
 18 56  1  0  0  0  0
 20 21  1  0  0  0  0
 20 57  1  0  0  0  0
 20 58  1  0  0  0  0
 21 22  1  0  0  0  0
 21 26  1  0  0  0  0
 21 59  1  1  0  0  0
 22 23  1  0  0  0  0
 22 60  1  0  0  0  0
 22 61  1  0  0  0  0
 23 24  1  0  0  0  0
 23 27  1  0  0  0  0
 24 25  1  0  0  0  0
 24 62  1  0  0  0  0
 24 63  1  0  0  0  0
 25 26  1  0  0  0  0
 25 64  1  0  0  0  0
 25 65  1  0  0  0  0
 27 28  1  0  0  0  0
 27 29  2  0  0  0  0
 27 30  2  0  0  0  0
 28 31  2  0  0  0  0
 28 35  1  0  0  0  0
 31 32  1  0  0  0  0
 31 36  1  0  0  0  0
 32 33  2  0  0  0  0
 32 66  1  0  0  0  0
 33 34  1  0  0  0  0
 33 67  1  0  0  0  0
 34 35  2  0  0  0  0
 34 68  1  0  0  0  0
 35 69  1  0  0  0  0
 36 37  3  0  0  0  0
M  END
>  <BIOSOLVEIT.HYDE_ESTIMATED_AFFINITY_LOWER_BOUNDARY [nM]>
94619371074.593689

>  <BIOSOLVEIT.HYDE_ESTIMATED_AFFINITY_UPPER_BOUNDARY [nM]>
9400993950256.935547

>  <BIOSOLVEIT.HYDE_LIGAND_EFFICIENCY range: ++, +, 0, -, -->
--

>  <BIOSOLVEIT.HYDE_LIGAND_LIPOPHILIC_EFFICIENCY range: ++, +, 0, -, -->
--

>  <BIOSOLVEIT.INTER_CLASH range: red, yellow, green>
green

>  <BIOSOLVEIT.INTRA_CLASH range: red, yellow, green>
yellow

>  <BIOSOLVEIT.LOGP>
3.07658

>  <BIOSOLVEIT.MOLECULAR WEIGHT>
528.626

>  <BIOSOLVEIT.MOLECULE_CHECKSUM>
MTYuOTc4OTsw

>  <BIOSOLVEIT.TORSION_QUALITY range: red, yellow, green, not rotatable>
red

>  <BIOSOLVEIT.TPSA>
141.74

$$$$
