Z297320586.****
 OpenBabel12172121453D
Hydescorer 1.1.2 b8048283
 33 34  0  0  0  0  0  0  0  0999 V2000
    0.7499  -14.7861    3.7101 C   0  0  0  0  0  0  0  0  0  0  0  0
    1.1750  -14.0796    4.8276 C   0  0  0  0  0  0  0  0  0  0  0  0
    0.2210  -13.6268    5.7345 C   0  0  0  0  0  0  0  0  0  0  0  0
   -1.1316  -13.8813    5.5079 C   0  0  0  0  0  0  0  0  0  0  0  0
   -1.5568  -14.5879    4.3641 C   0  0  0  0  0  0  0  0  0  0  0  0
   -0.5881  -15.0506    3.4632 C   0  0  0  0  0  0  0  0  0  0  0  0
    1.6759  -15.2305    2.8317 F   0  0  0  0  0  0  0  0  0  0  0  0
   -2.9748  -14.8514    4.1034 C   0  0  0  0  0  0  0  0  0  0  0  0
   -3.3858  -15.9272    3.6890 O   0  0  0  0  0  0  0  0  0  0  0  0
   -3.8764  -13.8240    4.2883 N   0  0  0  0  0  0  0  0  0  0  0  0
   -5.2847  -13.8730    4.0916 C   0  0  0  0  0  0  0  0  0  0  0  0
   -5.8313  -13.2362    2.9704 C   0  0  0  0  0  0  0  0  0  0  0  0
   -7.1975  -13.2441    2.7180 C   0  0  0  0  0  0  0  0  0  0  0  0
   -8.0473  -13.8927    3.6127 C   0  0  0  0  0  0  0  0  0  0  0  0
   -7.5089  -14.5099    4.7484 C   0  0  0  0  0  0  0  0  0  0  0  0
   -6.1330  -14.5110    4.9986 C   0  0  0  0  0  0  0  0  0  0  0  0
   -5.0181  -12.5885    2.1051 F   0  0  0  0  0  0  0  0  0  0  0  0
   -8.4043  -15.1604    5.6282 N   0  0  0  0  0  0  0  0  0  0  0  0
   -8.8963  -14.6424    6.7936 C   0  0  0  0  0  0  0  0  0  0  0  0
   -8.6020  -13.5243    7.1560 O   0  0  0  0  0  0  0  0  0  0  0  0
   -9.8389  -15.5194    7.5699 C   0  0  0  0  0  0  0  0  0  0  0  0
    2.1471  -13.8998    4.9777 H   0  0  0  0  0  0  0  0  0  0  0  0
    0.5052  -13.1193    6.5479 H   0  0  0  0  0  0  0  0  0  0  0  0
   -1.8104  -13.5576    6.1670 H   0  0  0  0  0  0  0  0  0  0  0  0
   -0.8594  -15.5664    2.6506 H   0  0  0  0  0  0  0  0  0  0  0  0
   -3.4992  -12.9497    4.5938 H   0  0  0  0  0  0  0  0  0  0  0  0
   -7.5659  -12.7910    1.9062 H   0  0  0  0  0  0  0  0  0  0  0  0
   -9.0329  -13.9169    3.4449 H   0  0  0  0  0  0  0  0  0  0  0  0
   -5.7636  -14.9603    5.8121 H   0  0  0  0  0  0  0  0  0  0  0  0
   -8.7042  -16.0803    5.3757 H   0  0  0  0  0  0  0  0  0  0  0  0
  -10.1332  -15.0418    8.3977 H   0  0  0  0  0  0  0  0  0  0  0  0
  -10.6371  -15.7320    7.0062 H   0  0  0  0  0  0  0  0  0  0  0  0
   -9.3734  -16.3678    7.8221 H   0  0  0  0  0  0  0  0  0  0  0  0
  1  2  2  0  0  0  0
  1  6  1  0  0  0  0
  1  7  1  0  0  0  0
  2  3  1  0  0  0  0
  2 22  1  0  0  0  0
  3  4  2  0  0  0  0
  3 23  1  0  0  0  0
  4  5  1  0  0  0  0
  4 24  1  0  0  0  0
  5  6  2  0  0  0  0
  5  8  1  0  0  0  0
  6 25  1  0  0  0  0
  8  9  2  0  0  0  0
  8 10  1  0  0  0  0
 10 11  1  0  0  0  0
 10 26  1  0  0  0  0
 11 12  2  0  0  0  0
 11 16  1  0  0  0  0
 12 13  1  0  0  0  0
 12 17  1  0  0  0  0
 13 14  2  0  0  0  0
 13 27  1  0  0  0  0
 14 15  1  0  0  0  0
 14 28  1  0  0  0  0
 15 16  2  0  0  0  0
 15 18  1  0  0  0  0
 16 29  1  0  0  0  0
 18 19  1  0  0  0  0
 18 30  1  0  0  0  0
 19 20  2  0  0  0  0
 19 21  1  0  0  0  0
 21 31  1  0  0  0  0
 21 32  1  0  0  0  0
 21 33  1  0  0  0  0
M  END
>  <BIOSOLVEIT.HYDE_ESTIMATED_AFFINITY_LOWER_BOUNDARY [nM]>
200622757.775144

>  <BIOSOLVEIT.HYDE_ESTIMATED_AFFINITY_UPPER_BOUNDARY [nM]>
19933057160.579838

>  <BIOSOLVEIT.HYDE_LIGAND_EFFICIENCY range: ++, +, 0, -, -->
--

>  <BIOSOLVEIT.HYDE_LIGAND_LIPOPHILIC_EFFICIENCY range: ++, +, 0, -, -->
--

>  <BIOSOLVEIT.INTER_CLASH range: red, yellow, green>
green

>  <BIOSOLVEIT.INTRA_CLASH range: red, yellow, green>
green

>  <BIOSOLVEIT.LOGP>
3.1755

>  <BIOSOLVEIT.MOLECULAR WEIGHT>
290.268

>  <BIOSOLVEIT.MOLECULE_CHECKSUM>
MS43MTc5ODsw

>  <BIOSOLVEIT.TORSION_QUALITY range: red, yellow, green, not rotatable>
yellow

>  <BIOSOLVEIT.TPSA>
58.2

$$$$
