Z410195728.****
 OpenBabel12172121453D
Hydescorer 1.1.2 b8048283
 37 38  0  0  0  0  0  0  0  0999 V2000
  -12.4589  -11.3825   -3.2496 C   0  0  0  0  0  0  0  0  0  0  0  0
  -11.1583  -10.8923   -3.3367 C   0  0  0  0  0  0  0  0  0  0  0  0
  -10.1945  -11.2615   -2.3981 C   0  0  0  0  0  0  0  0  0  0  0  0
  -10.5616  -12.1371   -1.3632 C   0  0  0  0  0  0  0  0  0  0  0  0
  -11.8646  -12.6294   -1.2658 C   0  0  0  0  0  0  0  0  0  0  0  0
  -12.8089  -12.2500   -2.2139 C   0  0  0  0  0  0  0  0  0  0  0  0
  -14.4325  -12.8484   -2.1094 Cl  0  0  0  0  0  0  0  0  0  0  0  0
   -8.7813  -10.7162   -2.5216 C   0  0  0  0  0  0  0  0  0  0  0  0
   -9.5864  -12.4850   -0.3962 N   0  0  0  0  0  0  0  0  0  0  0  0
   -9.3006  -13.7397    0.0534 C   0  0  0  0  0  0  0  0  0  0  0  0
   -8.3136  -13.7503    0.9830 N   0  0  0  0  0  0  0  0  0  0  0  0
   -9.8604  -14.7551   -0.3348 O   0  0  0  0  0  0  0  0  0  0  0  0
   -7.8472  -14.9946    1.6008 C   0  0  0  0  0  0  0  0  0  0  0  0
   -6.6155  -14.6250    2.4435 C   0  0  0  0  0  0  0  0  0  0  0  0
   -6.9373  -14.0152    3.8121 C   0  0  0  0  0  0  0  0  0  0  0  0
   -5.6718  -14.2245    4.6490 C   0  0  0  0  0  0  0  0  0  0  0  0
   -4.8690  -15.3196    3.9368 C   0  0  0  0  0  0  0  0  0  0  0  0
   -5.7912  -15.8504    2.8396 C   0  0  0  0  0  0  0  0  0  0  0  0
  -13.1416  -11.1132   -3.9288 H   0  0  0  0  0  0  0  0  0  0  0  0
  -10.9129  -10.2694   -4.0795 H   0  0  0  0  0  0  0  0  0  0  0  0
  -12.1163  -13.2485   -0.5218 H   0  0  0  0  0  0  0  0  0  0  0  0
   -8.2193  -11.0749   -1.7763 H   0  0  0  0  0  0  0  0  0  0  0  0
   -8.3911  -10.9972   -3.3984 H   0  0  0  0  0  0  0  0  0  0  0  0
   -8.8038   -9.7177   -2.4714 H   0  0  0  0  0  0  0  0  0  0  0  0
   -9.0543  -11.7347   -0.0040 H   0  0  0  0  0  0  0  0  0  0  0  0
   -7.8922  -12.8850    1.2545 H   0  0  0  0  0  0  0  0  0  0  0  0
   -7.5974  -15.6585    0.8958 H   0  0  0  0  0  0  0  0  0  0  0  0
   -8.5621  -15.3806    2.1838 H   0  0  0  0  0  0  0  0  0  0  0  0
   -6.0393  -13.9918    1.9267 H   0  0  0  0  0  0  0  0  0  0  0  0
   -7.7162  -14.4824    4.2303 H   0  0  0  0  0  0  0  0  0  0  0  0
   -7.1421  -13.0404    3.7228 H   0  0  0  0  0  0  0  0  0  0  0  0
   -5.9120  -14.5165    5.5748 H   0  0  0  0  0  0  0  0  0  0  0  0
   -5.1410  -13.3781    4.6936 H   0  0  0  0  0  0  0  0  0  0  0  0
   -4.6298  -16.0501    4.5764 H   0  0  0  0  0  0  0  0  0  0  0  0
   -4.0346  -14.9388    3.5386 H   0  0  0  0  0  0  0  0  0  0  0  0
   -5.2626  -16.1921    2.0625 H   0  0  0  0  0  0  0  0  0  0  0  0
   -6.3797  -16.5795    3.1888 H   0  0  0  0  0  0  0  0  0  0  0  0
  1  2  2  0  0  0  0
  1  6  1  0  0  0  0
  1 19  1  0  0  0  0
  2  3  1  0  0  0  0
  2 20  1  0  0  0  0
  3  4  2  0  0  0  0
  3  8  1  0  0  0  0
  4  5  1  0  0  0  0
  4  9  1  0  0  0  0
  5  6  2  0  0  0  0
  5 21  1  0  0  0  0
  6  7  1  0  0  0  0
  8 22  1  0  0  0  0
  8 23  1  0  0  0  0
  8 24  1  0  0  0  0
  9 10  1  0  0  0  0
  9 25  1  0  0  0  0
 10 11  1  0  0  0  0
 10 12  2  0  0  0  0
 11 13  1  0  0  0  0
 11 26  1  0  0  0  0
 13 14  1  0  0  0  0
 13 27  1  0  0  0  0
 13 28  1  0  0  0  0
 14 15  1  0  0  0  0
 14 18  1  0  0  0  0
 14 29  1  0  0  0  0
 15 16  1  0  0  0  0
 15 30  1  0  0  0  0
 15 31  1  0  0  0  0
 16 17  1  0  0  0  0
 16 32  1  0  0  0  0
 16 33  1  0  0  0  0
 17 18  1  0  0  0  0
 17 34  1  0  0  0  0
 17 35  1  0  0  0  0
 18 36  1  0  0  0  0
 18 37  1  0  0  0  0
M  END
>  <BIOSOLVEIT.HYDE_ESTIMATED_AFFINITY_LOWER_BOUNDARY [nM]>
52418747525.572609

>  <BIOSOLVEIT.HYDE_ESTIMATED_AFFINITY_UPPER_BOUNDARY [nM]>
5208112490828.767578

>  <BIOSOLVEIT.HYDE_LIGAND_EFFICIENCY range: ++, +, 0, -, -->
--

>  <BIOSOLVEIT.HYDE_LIGAND_LIPOPHILIC_EFFICIENCY range: ++, +, 0, -, -->
--

>  <BIOSOLVEIT.INTER_CLASH range: red, yellow, green>
green

>  <BIOSOLVEIT.INTRA_CLASH range: red, yellow, green>
green

>  <BIOSOLVEIT.LOGP>
3.96012

>  <BIOSOLVEIT.MOLECULAR WEIGHT>
266.77

>  <BIOSOLVEIT.MOLECULE_CHECKSUM>
MTUuNTE0ODsw

>  <BIOSOLVEIT.TORSION_QUALITY range: red, yellow, green, not rotatable>
green

>  <BIOSOLVEIT.TPSA>
41.13

$$$$
