Z1273128799.****
 OpenBabel12172121453D
Hydescorer 1.1.2 b8048283
 32 33  0  0  0  0  0  0  0  0999 V2000
   -9.0132  -14.9654    5.2619 C   0  0  0  0  0  0  0  0  0  0  0  0
   -8.8142  -14.7453    3.9006 C   0  0  0  0  0  0  0  0  0  0  0  0
   -7.7704  -15.3763    3.2230 C   0  0  0  0  0  0  0  0  0  0  0  0
   -6.9351  -16.2408    3.9465 C   0  0  0  0  0  0  0  0  0  0  0  0
   -7.1144  -16.4621    5.3078 C   0  0  0  0  0  0  0  0  0  0  0  0
   -8.1616  -15.8215    5.9644 C   0  0  0  0  0  0  0  0  0  0  0  0
   -8.4124  -16.0892    7.6571 Cl  0  0  0  0  0  0  0  0  0  0  0  0
   -7.5618  -15.1188    1.7403 C   0  0  0  0  0  0  0  0  0  0  0  0
   -5.8813  -16.9129    3.2998 N   0  0  0  0  0  0  0  0  0  0  0  0
   -4.6845  -16.3667    2.9578 C   0  0  0  0  0  0  0  0  0  0  0  0
   -3.6074  -17.1737    2.2607 C   0  0  0  0  0  0  0  0  0  0  0  0
   -4.5371  -15.2042    3.2535 O   0  0  0  0  0  0  0  0  0  0  0  0
   -2.2751  -16.8355    2.9615 C   0  0  0  0  0  0  0  0  0  0  0  0
   -1.3399  -15.9071    2.1346 C   0  0  0  0  0  0  0  0  0  0  0  0
   -0.1681  -16.8053    2.6315 C   0  0  0  0  0  0  0  0  0  0  0  0
   -1.2074  -17.9533    2.8051 C   0  0  0  0  0  0  0  0  0  0  0  0
   -9.7665  -14.5102    5.7366 H   0  0  0  0  0  0  0  0  0  0  0  0
   -9.4256  -14.1290    3.4043 H   0  0  0  0  0  0  0  0  0  0  0  0
   -6.5000  -17.0726    5.8076 H   0  0  0  0  0  0  0  0  0  0  0  0
   -6.7763  -15.6469    1.4175 H   0  0  0  0  0  0  0  0  0  0  0  0
   -8.3796  -15.3956    1.2356 H   0  0  0  0  0  0  0  0  0  0  0  0
   -7.3923  -14.1446    1.5917 H   0  0  0  0  0  0  0  0  0  0  0  0
   -6.0254  -17.8759    3.0721 H   0  0  0  0  0  0  0  0  0  0  0  0
   -3.5612  -16.9236    1.2937 H   0  0  0  0  0  0  0  0  0  0  0  0
   -3.8016  -18.1512    2.3433 H   0  0  0  0  0  0  0  0  0  0  0  0
   -2.3933  -16.5336    3.9076 H   0  0  0  0  0  0  0  0  0  0  0  0
   -1.3047  -14.9582    2.4483 H   0  0  0  0  0  0  0  0  0  0  0  0
   -1.4948  -15.9261    1.1468 H   0  0  0  0  0  0  0  0  0  0  0  0
    0.2601  -16.4988    3.4816 H   0  0  0  0  0  0  0  0  0  0  0  0
    0.5392  -16.9835    1.9474 H   0  0  0  0  0  0  0  0  0  0  0  0
   -1.3256  -18.5383    2.0027 H   0  0  0  0  0  0  0  0  0  0  0  0
   -1.0731  -18.5229    3.6159 H   0  0  0  0  0  0  0  0  0  0  0  0
  1  2  2  0  0  0  0
  1  6  1  0  0  0  0
  1 17  1  0  0  0  0
  2  3  1  0  0  0  0
  2 18  1  0  0  0  0
  3  4  2  0  0  0  0
  3  8  1  0  0  0  0
  4  5  1  0  0  0  0
  4  9  1  0  0  0  0
  5  6  2  0  0  0  0
  5 19  1  0  0  0  0
  6  7  1  0  0  0  0
  8 20  1  0  0  0  0
  8 21  1  0  0  0  0
  8 22  1  0  0  0  0
  9 10  1  0  0  0  0
  9 23  1  0  0  0  0
 10 11  1  0  0  0  0
 10 12  2  0  0  0  0
 11 13  1  0  0  0  0
 11 24  1  0  0  0  0
 11 25  1  0  0  0  0
 13 14  1  0  0  0  0
 13 16  1  0  0  0  0
 13 26  1  0  0  0  0
 14 15  1  0  0  0  0
 14 27  1  0  0  0  0
 14 28  1  0  0  0  0
 15 16  1  0  0  0  0
 15 29  1  0  0  0  0
 15 30  1  0  0  0  0
 16 31  1  0  0  0  0
 16 32  1  0  0  0  0
M  END
>  <BIOSOLVEIT.HYDE_ESTIMATED_AFFINITY_LOWER_BOUNDARY [nM]>
17768011.134173

>  <BIOSOLVEIT.HYDE_ESTIMATED_AFFINITY_UPPER_BOUNDARY [nM]>
1765356958.975892

>  <BIOSOLVEIT.HYDE_LIGAND_EFFICIENCY range: ++, +, 0, -, -->
--

>  <BIOSOLVEIT.HYDE_LIGAND_LIPOPHILIC_EFFICIENCY range: ++, +, 0, -, -->
--

>  <BIOSOLVEIT.INTER_CLASH range: red, yellow, green>
green

>  <BIOSOLVEIT.INTRA_CLASH range: red, yellow, green>
green

>  <BIOSOLVEIT.LOGP>
3.77712

>  <BIOSOLVEIT.MOLECULAR WEIGHT>
237.728

>  <BIOSOLVEIT.MOLECULE_CHECKSUM>
LTQuMjkxMDg7MC4yNjgxOTI=

>  <BIOSOLVEIT.TORSION_QUALITY range: red, yellow, green, not rotatable>
yellow

>  <BIOSOLVEIT.TPSA>
29.1

$$$$
