G6.sdf
 OpenBabel12172121453D
Hydescorer 1.1.2 b8048283
 61 63  0  0  0  0  0  0  0  0999 V2000
   -0.0796  -13.2517   -6.3395 C   0  0  0  0  0  0  0  0  0  0  0  0
   -0.1033  -12.1929   -5.4342 C   0  0  0  0  0  0  0  0  0  0  0  0
   -1.2766  -11.8790   -4.7540 C   0  0  0  0  0  0  0  0  0  0  0  0
   -2.4326  -12.6300   -4.9888 C   0  0  0  0  0  0  0  0  0  0  0  0
   -2.4163  -13.6980   -5.8818 C   0  0  0  0  0  0  0  0  0  0  0  0
   -1.2383  -14.0019   -6.5611 C   0  0  0  0  0  0  0  0  0  0  0  0
   -1.2103  -15.3167   -7.6889 Cl  0  0  0  0  0  0  0  0  0  0  0  0
   -3.6253  -12.3333   -4.3248 N   0  0  0  0  0  0  0  0  0  0  0  0
   -4.0797  -10.9441   -4.3749 C   0  0  0  0  0  0  0  0  0  0  0  0
   -5.1575  -10.8759   -3.3149 C   0  0  0  0  0  0  0  0  0  0  0  0
   -5.0309  -11.1349   -1.9757 C   0  0  0  0  0  0  0  0  0  0  0  0
   -6.2242  -10.9535   -1.2660 C   0  0  0  0  0  0  0  0  0  0  0  0
   -7.2763  -10.5456   -2.0597 C   0  0  0  0  0  0  0  0  0  0  0  0
   -6.7691  -10.4034   -3.7140 S   0  0  0  0  0  0  0  0  0  0  0  0
   -8.6399  -10.2309   -1.6711 C   0  0  0  0  0  0  0  0  0  0  0  0
   -9.5954  -11.1997   -1.7858 N   0  0  0  0  0  0  0  0  0  0  0  0
  -11.0035  -10.9443   -1.4071 C   0  0  2  0  0  0  0  0  0  0  0  0
  -11.4291  -11.9849   -0.3513 C   0  0  0  0  0  0  0  0  0  0  0  0
  -11.8668  -11.1003   -2.6837 C   0  0  0  0  0  0  0  0  0  0  0  0
  -11.9013  -11.6821    0.7422 O   0  0  0  0  0  0  0  0  0  0  0  0
  -11.3328  -13.2683   -0.7141 N   0  0  0  0  0  0  0  0  0  0  0  0
  -11.6858  -14.3995    0.1397 C   0  0  0  0  0  0  0  0  0  0  0  0
  -10.4207  -15.1396    0.5796 C   0  0  0  0  0  0  0  0  0  0  0  0
   -9.5516  -14.2343    1.2437 O   0  0  0  0  0  0  0  0  0  0  0  0
   -8.3461  -14.8517    1.6700 C   0  0  0  0  0  0  0  0  0  0  0  0
  -12.0357   -9.7290   -3.3702 C   0  0  0  0  0  0  0  0  0  0  0  0
  -12.7390   -8.6676   -2.5202 C   0  0  0  0  0  0  0  0  0  0  0  0
  -13.2515   -7.6357   -3.5301 C   0  0  0  0  0  0  0  0  0  0  0  0
  -13.2992   -8.3553   -4.8834 C   0  0  0  0  0  0  0  0  0  0  0  0
  -12.9633   -9.8151   -4.5817 C   0  0  0  0  0  0  0  0  0  0  0  0
   -8.9973   -9.1500   -1.2073 O   0  0  0  0  0  0  0  0  0  0  0  0
    0.7633  -13.4742   -6.8292 H   0  0  0  0  0  0  0  0  0  0  0  0
    0.7252  -11.6567   -5.2725 H   0  0  0  0  0  0  0  0  0  0  0  0
   -1.2927  -11.1213   -4.1015 H   0  0  0  0  0  0  0  0  0  0  0  0
   -3.2418  -14.2415   -6.0342 H   0  0  0  0  0  0  0  0  0  0  0  0
   -4.1435  -13.0369   -3.8386 H   0  0  0  0  0  0  0  0  0  0  0  0
   -4.4526  -10.7239   -5.2762 H   0  0  0  0  0  0  0  0  0  0  0  0
   -3.3307  -10.3168   -4.1617 H   0  0  0  0  0  0  0  0  0  0  0  0
   -4.1741  -11.4241   -1.5487 H   0  0  0  0  0  0  0  0  0  0  0  0
   -6.3058  -11.1046   -0.2809 H   0  0  0  0  0  0  0  0  0  0  0  0
   -9.3383  -12.1015   -2.1333 H   0  0  0  0  0  0  0  0  0  0  0  0
  -11.0986  -10.0199   -1.0378 H   0  0  0  0  0  0  0  0  0  0  0  0
  -12.7660  -11.4599   -2.4346 H   0  0  0  0  0  0  0  0  0  0  0  0
  -11.4171  -11.7338   -3.3134 H   0  0  0  0  0  0  0  0  0  0  0  0
  -10.9956  -13.4674   -1.6343 H   0  0  0  0  0  0  0  0  0  0  0  0
  -12.2761  -15.0264   -0.3688 H   0  0  0  0  0  0  0  0  0  0  0  0
  -12.1716  -14.0655    0.9474 H   0  0  0  0  0  0  0  0  0  0  0  0
   -9.9590  -15.5173   -0.2231 H   0  0  0  0  0  0  0  0  0  0  0  0
  -10.6680  -15.8821    1.2020 H   0  0  0  0  0  0  0  0  0  0  0  0
   -7.7701  -14.1760    2.1301 H   0  0  0  0  0  0  0  0  0  0  0  0
   -8.5586  -15.5955    2.3037 H   0  0  0  0  0  0  0  0  0  0  0  0
   -7.8607  -15.2184    0.8764 H   0  0  0  0  0  0  0  0  0  0  0  0
  -11.1411   -9.3873   -3.6582 H   0  0  0  0  0  0  0  0  0  0  0  0
  -12.0964   -8.2458   -1.8805 H   0  0  0  0  0  0  0  0  0  0  0  0
  -13.4996   -9.0708   -2.0114 H   0  0  0  0  0  0  0  0  0  0  0  0
  -12.6294   -6.8540   -3.5741 H   0  0  0  0  0  0  0  0  0  0  0  0
  -14.1648   -7.3207   -3.2718 H   0  0  0  0  0  0  0  0  0  0  0  0
  -12.6260   -7.9644   -5.5111 H   0  0  0  0  0  0  0  0  0  0  0  0
  -14.2118   -8.2827   -5.2859 H   0  0  0  0  0  0  0  0  0  0  0  0
  -13.7898  -10.3334   -4.3621 H   0  0  0  0  0  0  0  0  0  0  0  0
  -12.4985  -10.2420   -5.3574 H   0  0  0  0  0  0  0  0  0  0  0  0
  1  2  2  0  0  0  0
  1  6  1  0  0  0  0
  1 32  1  0  0  0  0
  2  3  1  0  0  0  0
  2 33  1  0  0  0  0
  3  4  2  0  0  0  0
  3 34  1  0  0  0  0
  4  5  1  0  0  0  0
  4  8  1  0  0  0  0
  5  6  2  0  0  0  0
  5 35  1  0  0  0  0
  6  7  1  0  0  0  0
  8  9  1  0  0  0  0
  8 36  1  0  0  0  0
  9 10  1  0  0  0  0
  9 37  1  0  0  0  0
  9 38  1  0  0  0  0
 10 11  2  0  0  0  0
 10 14  1  0  0  0  0
 11 12  1  0  0  0  0
 11 39  1  0  0  0  0
 12 13  2  0  0  0  0
 12 40  1  0  0  0  0
 13 14  1  0  0  0  0
 13 15  1  0  0  0  0
 15 16  1  0  0  0  0
 15 31  2  0  0  0  0
 16 17  1  0  0  0  0
 16 41  1  0  0  0  0
 17 18  1  0  0  0  0
 17 19  1  0  0  0  0
 17 42  1  1  0  0  0
 18 20  2  0  0  0  0
 18 21  1  0  0  0  0
 19 26  1  0  0  0  0
 19 43  1  0  0  0  0
 19 44  1  0  0  0  0
 21 22  1  0  0  0  0
 21 45  1  0  0  0  0
 22 23  1  0  0  0  0
 22 46  1  0  0  0  0
 22 47  1  0  0  0  0
 23 24  1  0  0  0  0
 23 48  1  0  0  0  0
 23 49  1  0  0  0  0
 24 25  1  0  0  0  0
 25 50  1  0  0  0  0
 25 51  1  0  0  0  0
 25 52  1  0  0  0  0
 26 27  1  0  0  0  0
 26 30  1  0  0  0  0
 26 53  1  0  0  0  0
 27 28  1  0  0  0  0
 27 54  1  0  0  0  0
 27 55  1  0  0  0  0
 28 29  1  0  0  0  0
 28 56  1  0  0  0  0
 28 57  1  0  0  0  0
 29 30  1  0  0  0  0
 29 58  1  0  0  0  0
 29 59  1  0  0  0  0
 30 60  1  0  0  0  0
 30 61  1  0  0  0  0
M  END
>  <BIOSOLVEIT.HYDE_ESTIMATED_AFFINITY_LOWER_BOUNDARY [nM]>
43794005431.782036

>  <BIOSOLVEIT.HYDE_ESTIMATED_AFFINITY_UPPER_BOUNDARY [nM]>
4351193370299.731934

>  <BIOSOLVEIT.HYDE_LIGAND_EFFICIENCY range: ++, +, 0, -, -->
--

>  <BIOSOLVEIT.HYDE_LIGAND_LIPOPHILIC_EFFICIENCY range: ++, +, 0, -, -->
--

>  <BIOSOLVEIT.INTER_CLASH range: red, yellow, green>
green

>  <BIOSOLVEIT.INTRA_CLASH range: red, yellow, green>
green

>  <BIOSOLVEIT.LOGP>
4.4549

>  <BIOSOLVEIT.MOLECULAR WEIGHT>
464.026

>  <BIOSOLVEIT.MOLECULE_CHECKSUM>
MTUuMDY5Mjsw

>  <BIOSOLVEIT.TORSION_QUALITY range: red, yellow, green, not rotatable>
red

>  <BIOSOLVEIT.TPSA>
79.46

$$$$
