G4.sdf
 OpenBabel12172121453D
Hydescorer 1.1.2 b8048283
 79 83  0  0  0  0  0  0  0  0999 V2000
   -5.3069  -10.9498   -1.7847 C   0  0  0  0  0  0  0  0  0  0  0  0
   -5.5691  -10.7042   -3.0898 C   0  0  0  0  0  0  0  0  0  0  0  0
   -6.9445  -10.5007   -3.2020 C   0  0  0  0  0  0  0  0  0  0  0  0
   -7.4806  -10.6277   -1.9531 C   0  0  0  0  0  0  0  0  0  0  0  0
   -6.4552  -10.9099   -1.0779 O   0  0  0  0  0  0  0  0  0  0  0  0
   -8.8644  -10.5162   -1.4994 C   0  0  0  0  0  0  0  0  0  0  0  0
   -9.6312  -11.6480   -1.4515 N   0  0  0  0  0  0  0  0  0  0  0  0
   -9.3969   -9.4727   -1.1316 O   0  0  0  0  0  0  0  0  0  0  0  0
  -11.0390  -11.5921   -0.9997 C   0  0  2  0  0  0  0  0  0  0  0  0
  -11.3171  -12.8693   -0.1857 C   0  0  0  0  0  0  0  0  0  0  0  0
  -11.9400  -11.5675   -2.2605 C   0  0  0  0  0  0  0  0  0  0  0  0
  -13.2417  -10.7754   -1.9896 C   0  0  0  0  0  0  0  0  0  0  0  0
  -14.1600  -11.4419   -0.9473 C   0  0  0  0  0  0  0  0  0  0  0  0
  -15.3994  -10.5748   -0.6489 C   0  0  0  0  0  0  0  0  0  0  0  0
  -15.8337   -9.6826   -1.8255 C   0  0  0  0  0  0  0  0  0  0  0  0
  -15.5188  -10.3557   -3.1659 C   0  0  0  0  0  0  0  0  0  0  0  0
  -14.0078  -10.6155   -3.3239 C   0  0  0  0  0  0  0  0  0  0  0  0
  -11.0039  -12.8220    1.1120 N   0  0  0  0  0  0  0  0  0  0  0  0
  -11.7003  -13.9194   -0.6976 O   0  0  0  0  0  0  0  0  0  0  0  0
  -11.1981  -13.9367    2.0348 C   0  0  0  0  0  0  0  0  0  0  0  0
  -10.7865  -13.4604    3.4325 C   0  0  2  0  0  0  0  0  0  0  0  0
  -11.0256  -14.5798    4.4687 C   0  0  0  0  0  0  0  0  0  0  0  0
  -10.5982  -13.9895    5.7660 N   0  0  0  0  0  0  0  0  0  0  0  0
  -11.4238  -12.8103    6.1412 C   0  0  0  0  0  0  0  0  0  0  0  0
  -11.1870  -11.7513    5.0376 C   0  0  0  0  0  0  0  0  0  0  0  0
  -11.5921  -12.3326    3.7977 O   0  0  0  0  0  0  0  0  0  0  0  0
   -9.2677  -14.0832    6.1535 C   0  0  0  0  0  0  0  0  0  0  0  0
   -8.8572  -13.2747    6.9784 O   0  0  0  0  0  0  0  0  0  0  0  0
   -8.4080  -15.1424    5.6253 C   0  0  0  0  0  0  0  0  0  0  0  0
   -7.4552  -14.8424    4.6439 C   0  0  0  0  0  0  0  0  0  0  0  0
   -6.6142  -15.8295    4.1481 C   0  0  0  0  0  0  0  0  0  0  0  0
   -6.7016  -17.1496    4.6166 C   0  0  0  0  0  0  0  0  0  0  0  0
   -7.6830  -17.4559    5.5736 C   0  0  0  0  0  0  0  0  0  0  0  0
   -8.5227  -16.4667    6.0707 C   0  0  0  0  0  0  0  0  0  0  0  0
   -5.7944  -18.1743    4.0964 C   0  0  0  0  0  0  0  0  0  0  0  0
   -6.1955  -19.3259    3.9922 O   0  0  0  0  0  0  0  0  0  0  0  0
   -4.4229  -17.8588    3.6931 C   0  0  0  0  0  0  0  0  0  0  0  0
   -4.1569  -17.1217    2.5279 C   0  0  0  0  0  0  0  0  0  0  0  0
   -2.8492  -16.8179    2.1660 C   0  0  0  0  0  0  0  0  0  0  0  0
   -1.7890  -17.2516    2.9562 C   0  0  0  0  0  0  0  0  0  0  0  0
   -2.0362  -17.9966    4.1045 C   0  0  0  0  0  0  0  0  0  0  0  0
   -3.3420  -18.3019    4.4688 C   0  0  0  0  0  0  0  0  0  0  0  0
   -4.4009  -11.1328   -1.4030 H   0  0  0  0  0  0  0  0  0  0  0  0
   -4.9018  -10.6743   -3.8340 H   0  0  0  0  0  0  0  0  0  0  0  0
   -7.4459  -10.2987   -4.0433 H   0  0  0  0  0  0  0  0  0  0  0  0
   -9.2351  -12.5245   -1.7253 H   0  0  0  0  0  0  0  0  0  0  0  0
  -11.1960  -10.7782   -0.4403 H   0  0  0  0  0  0  0  0  0  0  0  0
  -12.1740  -12.5058   -2.5146 H   0  0  0  0  0  0  0  0  0  0  0  0
  -11.4419  -11.1332   -3.0110 H   0  0  0  0  0  0  0  0  0  0  0  0
  -12.9942   -9.8655   -1.6566 H   0  0  0  0  0  0  0  0  0  0  0  0
  -13.6459  -11.5763   -0.1001 H   0  0  0  0  0  0  0  0  0  0  0  0
  -14.4607  -12.3285   -1.2989 H   0  0  0  0  0  0  0  0  0  0  0  0
  -15.1914   -9.9865    0.1325 H   0  0  0  0  0  0  0  0  0  0  0  0
  -16.1596  -11.1815   -0.4164 H   0  0  0  0  0  0  0  0  0  0  0  0
  -15.3455   -8.8114   -1.7736 H   0  0  0  0  0  0  0  0  0  0  0  0
  -16.8181   -9.5171   -1.7652 H   0  0  0  0  0  0  0  0  0  0  0  0
  -15.8261   -9.7608   -3.9086 H   0  0  0  0  0  0  0  0  0  0  0  0
  -16.0057  -11.2278   -3.2142 H   0  0  0  0  0  0  0  0  0  0  0  0
  -13.8889  -11.4546   -3.8549 H   0  0  0  0  0  0  0  0  0  0  0  0
  -13.6090   -9.8461   -3.8229 H   0  0  0  0  0  0  0  0  0  0  0  0
  -10.6142  -11.9744    1.4721 H   0  0  0  0  0  0  0  0  0  0  0  0
  -10.6298  -14.7114    1.7577 H   0  0  0  0  0  0  0  0  0  0  0  0
  -12.1593  -14.2128    2.0382 H   0  0  0  0  0  0  0  0  0  0  0  0
   -9.8208  -13.2007    3.4311 H   0  0  0  0  0  0  0  0  0  0  0  0
  -10.4763  -15.3863    4.2500 H   0  0  0  0  0  0  0  0  0  0  0  0
  -11.9926  -14.8330    4.4978 H   0  0  0  0  0  0  0  0  0  0  0  0
  -11.1368  -12.4546    7.0307 H   0  0  0  0  0  0  0  0  0  0  0  0
  -12.3910  -13.0617    6.1791 H   0  0  0  0  0  0  0  0  0  0  0  0
  -10.2181  -11.5065    5.0005 H   0  0  0  0  0  0  0  0  0  0  0  0
  -11.7305  -10.9332    5.2259 H   0  0  0  0  0  0  0  0  0  0  0  0
   -7.3797  -13.9076    4.2967 H   0  0  0  0  0  0  0  0  0  0  0  0
   -5.9381  -15.5972    3.4489 H   0  0  0  0  0  0  0  0  0  0  0  0
   -7.7785  -18.3961    5.9006 H   0  0  0  0  0  0  0  0  0  0  0  0
   -9.2154  -16.7017    6.7527 H   0  0  0  0  0  0  0  0  0  0  0  0
   -4.9147  -16.8125    1.9532 H   0  0  0  0  0  0  0  0  0  0  0  0
   -2.6705  -16.2873    1.3375 H   0  0  0  0  0  0  0  0  0  0  0  0
   -0.8492  -17.0276    2.6984 H   0  0  0  0  0  0  0  0  0  0  0  0
   -1.2734  -18.3127    4.6685 H   0  0  0  0  0  0  0  0  0  0  0  0
   -3.5126  -18.8431    5.2922 H   0  0  0  0  0  0  0  0  0  0  0  0
  1  2  2  0  0  0  0
  1  5  1  0  0  0  0
  1 43  1  0  0  0  0
  2  3  1  0  0  0  0
  2 44  1  0  0  0  0
  3  4  2  0  0  0  0
  3 45  1  0  0  0  0
  4  5  1  0  0  0  0
  4  6  1  0  0  0  0
  6  7  1  0  0  0  0
  6  8  2  0  0  0  0
  7  9  1  0  0  0  0
  7 46  1  0  0  0  0
  9 10  1  0  0  0  0
  9 11  1  0  0  0  0
  9 47  1  1  0  0  0
 10 18  1  0  0  0  0
 10 19  2  0  0  0  0
 11 12  1  0  0  0  0
 11 48  1  0  0  0  0
 11 49  1  0  0  0  0
 12 13  1  0  0  0  0
 12 17  1  0  0  0  0
 12 50  1  0  0  0  0
 13 14  1  0  0  0  0
 13 51  1  0  0  0  0
 13 52  1  0  0  0  0
 14 15  1  0  0  0  0
 14 53  1  0  0  0  0
 14 54  1  0  0  0  0
 15 16  1  0  0  0  0
 15 55  1  0  0  0  0
 15 56  1  0  0  0  0
 16 17  1  0  0  0  0
 16 57  1  0  0  0  0
 16 58  1  0  0  0  0
 17 59  1  0  0  0  0
 17 60  1  0  0  0  0
 18 20  1  0  0  0  0
 18 61  1  0  0  0  0
 20 21  1  0  0  0  0
 20 62  1  0  0  0  0
 20 63  1  0  0  0  0
 21 22  1  0  0  0  0
 21 26  1  0  0  0  0
 21 64  1  6  0  0  0
 22 23  1  0  0  0  0
 22 65  1  0  0  0  0
 22 66  1  0  0  0  0
 23 24  1  0  0  0  0
 23 27  1  0  0  0  0
 24 25  1  0  0  0  0
 24 67  1  0  0  0  0
 24 68  1  0  0  0  0
 25 26  1  0  0  0  0
 25 69  1  0  0  0  0
 25 70  1  0  0  0  0
 27 28  2  0  0  0  0
 27 29  1  0  0  0  0
 29 30  2  0  0  0  0
 29 34  1  0  0  0  0
 30 31  1  0  0  0  0
 30 71  1  0  0  0  0
 31 32  2  0  0  0  0
 31 72  1  0  0  0  0
 32 33  1  0  0  0  0
 32 35  1  0  0  0  0
 33 34  2  0  0  0  0
 33 73  1  0  0  0  0
 34 74  1  0  0  0  0
 35 36  2  0  0  0  0
 35 37  1  0  0  0  0
 37 38  2  0  0  0  0
 37 42  1  0  0  0  0
 38 39  1  0  0  0  0
 38 75  1  0  0  0  0
 39 40  2  0  0  0  0
 39 76  1  0  0  0  0
 40 41  1  0  0  0  0
 40 77  1  0  0  0  0
 41 42  2  0  0  0  0
 41 78  1  0  0  0  0
 42 79  1  0  0  0  0
M  END
>  <BIOSOLVEIT.HYDE_ESTIMATED_AFFINITY_LOWER_BOUNDARY [nM]>
1284969048.756437

>  <BIOSOLVEIT.HYDE_ESTIMATED_AFFINITY_UPPER_BOUNDARY [nM]>
127669272332.230484

>  <BIOSOLVEIT.HYDE_LIGAND_EFFICIENCY range: ++, +, 0, -, -->
--

>  <BIOSOLVEIT.HYDE_LIGAND_LIPOPHILIC_EFFICIENCY range: ++, +, 0, -, -->
--

>  <BIOSOLVEIT.INTER_CLASH range: red, yellow, green>
green

>  <BIOSOLVEIT.INTRA_CLASH range: red, yellow, green>
green

>  <BIOSOLVEIT.LOGP>
4.2368

>  <BIOSOLVEIT.MOLECULAR WEIGHT>
571.67

>  <BIOSOLVEIT.MOLECULE_CHECKSUM>
Ni4zMjE1Njsw

>  <BIOSOLVEIT.TORSION_QUALITY range: red, yellow, green, not rotatable>
red

>  <BIOSOLVEIT.TPSA>
117.95

$$$$
