PV-001794469959.****
 OpenBabel12172121453D
Hydescorer 1.1.2 b8048283
 40 42  0  0  0  0  0  0  0  0999 V2000
    1.7357  -14.8114    3.7569 C   0  0  0  0  0  0  0  0  0  0  0  0
    0.6918  -13.9148    3.9917 C   0  0  0  0  0  0  0  0  0  0  0  0
   -0.2353  -14.1856    5.0107 C   0  0  0  0  0  0  0  0  0  0  0  0
   -0.1035  -15.3594    5.7566 C   0  0  0  0  0  0  0  0  0  0  0  0
    0.9410  -16.2454    5.5165 C   0  0  0  0  0  0  0  0  0  0  0  0
    1.8616  -15.9691    4.5146 C   0  0  0  0  0  0  0  0  0  0  0  0
    0.6153  -12.6649    3.1315 C   0  0  0  0  0  0  0  0  0  0  0  0
    1.1064  -17.8147    6.5612 Br  0  0  0  0  0  0  0  0  0  0  0  0
   -1.3933  -13.2458    5.3469 C   0  0  0  0  0  0  0  0  0  0  0  0
   -2.6386  -13.7134    4.6082 C   0  0  0  0  0  0  0  0  0  0  0  0
   -3.7375  -12.9249    4.4468 N   0  0  0  0  0  0  0  0  0  0  0  0
   -2.7229  -14.8181    4.1192 O   0  0  0  0  0  0  0  0  0  0  0  0
   -4.9216  -13.2792    3.7812 C   0  0  0  0  0  0  0  0  0  0  0  0
   -5.7580  -14.2540    4.3205 C   0  0  0  0  0  0  0  0  0  0  0  0
   -6.9248  -14.5716    3.6270 C   0  0  0  0  0  0  0  0  0  0  0  0
   -7.2546  -13.9532    2.4156 C   0  0  0  0  0  0  0  0  0  0  0  0
   -6.3976  -12.9845    1.8960 C   0  0  0  0  0  0  0  0  0  0  0  0
   -5.2288  -12.6447    2.5757 C   0  0  0  0  0  0  0  0  0  0  0  0
   -7.8059  -15.5688    4.1739 N   0  0  0  0  0  0  0  0  0  0  0  0
   -9.0558  -15.3972    4.6081 C   0  0  0  0  0  0  0  0  0  0  0  0
   -9.4984  -16.5234    5.0291 N   0  0  0  0  0  0  0  0  0  0  0  0
   -8.4869  -17.4177    4.8555 N   0  0  0  0  0  0  0  0  0  0  0  0
   -7.4495  -16.8319    4.3350 N   0  0  0  0  0  0  0  0  0  0  0  0
   -9.7900  -14.0727    4.5947 C   0  0  0  0  0  0  0  0  0  0  0  0
    2.4003  -14.6183    3.0351 H   0  0  0  0  0  0  0  0  0  0  0  0
   -0.7697  -15.5655    6.4733 H   0  0  0  0  0  0  0  0  0  0  0  0
    2.6148  -16.6029    4.3385 H   0  0  0  0  0  0  0  0  0  0  0  0
   -0.1753  -12.1183    3.4075 H   0  0  0  0  0  0  0  0  0  0  0  0
    1.4501  -12.1271    3.2499 H   0  0  0  0  0  0  0  0  0  0  0  0
    0.5207  -12.9265    2.1710 H   0  0  0  0  0  0  0  0  0  0  0  0
   -1.1638  -12.3151    5.0619 H   0  0  0  0  0  0  0  0  0  0  0  0
   -1.5623  -13.2607    6.3323 H   0  0  0  0  0  0  0  0  0  0  0  0
   -3.6970  -12.0063    4.8398 H   0  0  0  0  0  0  0  0  0  0  0  0
   -5.5283  -14.7120    5.1792 H   0  0  0  0  0  0  0  0  0  0  0  0
   -8.0924  -14.2026    1.9300 H   0  0  0  0  0  0  0  0  0  0  0  0
   -6.6219  -12.5318    1.0330 H   0  0  0  0  0  0  0  0  0  0  0  0
   -4.6137  -11.9504    2.2021 H   0  0  0  0  0  0  0  0  0  0  0  0
  -10.7090  -14.1972    4.9690 H   0  0  0  0  0  0  0  0  0  0  0  0
   -9.2904  -13.4090    5.1514 H   0  0  0  0  0  0  0  0  0  0  0  0
   -9.8554  -13.7373    3.6549 H   0  0  0  0  0  0  0  0  0  0  0  0
  1  2  2  0  0  0  0
  1  6  1  0  0  0  0
  1 25  1  0  0  0  0
  2  3  1  0  0  0  0
  2  7  1  0  0  0  0
  3  4  2  0  0  0  0
  3  9  1  0  0  0  0
  4  5  1  0  0  0  0
  4 26  1  0  0  0  0
  5  6  2  0  0  0  0
  5  8  1  0  0  0  0
  6 27  1  0  0  0  0
  7 28  1  0  0  0  0
  7 29  1  0  0  0  0
  7 30  1  0  0  0  0
  9 10  1  0  0  0  0
  9 31  1  0  0  0  0
  9 32  1  0  0  0  0
 10 11  1  0  0  0  0
 10 12  2  0  0  0  0
 11 13  1  0  0  0  0
 11 33  1  0  0  0  0
 13 14  2  0  0  0  0
 13 18  1  0  0  0  0
 14 15  1  0  0  0  0
 14 34  1  0  0  0  0
 15 16  2  0  0  0  0
 15 19  1  0  0  0  0
 16 17  1  0  0  0  0
 16 35  1  0  0  0  0
 17 18  2  0  0  0  0
 17 36  1  0  0  0  0
 18 37  1  0  0  0  0
 19 20  1  0  0  0  0
 19 23  1  0  0  0  0
 20 21  2  0  0  0  0
 20 24  1  0  0  0  0
 21 22  1  0  0  0  0
 22 23  2  0  0  0  0
 24 38  1  0  0  0  0
 24 39  1  0  0  0  0
 24 40  1  0  0  0  0
M  END
>  <BIOSOLVEIT.HYDE_ESTIMATED_AFFINITY_LOWER_BOUNDARY [nM]>
125420279.253890

>  <BIOSOLVEIT.HYDE_ESTIMATED_AFFINITY_UPPER_BOUNDARY [nM]>
12461246287.251488

>  <BIOSOLVEIT.HYDE_LIGAND_EFFICIENCY range: ++, +, 0, -, -->
--

>  <BIOSOLVEIT.HYDE_LIGAND_LIPOPHILIC_EFFICIENCY range: ++, +, 0, -, -->
--

>  <BIOSOLVEIT.INTER_CLASH range: red, yellow, green>
green

>  <BIOSOLVEIT.INTRA_CLASH range: red, yellow, green>
green

>  <BIOSOLVEIT.LOGP>
3.22284

>  <BIOSOLVEIT.MOLECULAR WEIGHT>
386.251

>  <BIOSOLVEIT.MOLECULE_CHECKSUM>
MC41NTM0NzU7MA==

>  <BIOSOLVEIT.TORSION_QUALITY range: red, yellow, green, not rotatable>
yellow

>  <BIOSOLVEIT.TPSA>
72.7

$$$$
