Z1273128799.****
 OpenBabel12172121453D
Hydescorer 1.1.2 b8048283
 32 33  0  0  0  0  0  0  0  0999 V2000
   -4.2250  -14.2641    3.5696 C   0  0  0  0  0  0  0  0  0  0  0  0
   -3.0100  -13.6169    3.7849 C   0  0  0  0  0  0  0  0  0  0  0  0
   -1.8294  -14.1192    3.2363 C   0  0  0  0  0  0  0  0  0  0  0  0
   -1.9012  -15.2850    2.4588 C   0  0  0  0  0  0  0  0  0  0  0  0
   -3.1048  -15.9481    2.2441 C   0  0  0  0  0  0  0  0  0  0  0  0
   -4.2706  -15.4302    2.8018 C   0  0  0  0  0  0  0  0  0  0  0  0
   -5.7834  -16.2318    2.5398 Cl  0  0  0  0  0  0  0  0  0  0  0  0
   -0.5115  -13.4062    3.4877 C   0  0  0  0  0  0  0  0  0  0  0  0
   -0.7384  -15.8164    1.8707 N   0  0  0  0  0  0  0  0  0  0  0  0
   -0.1618  -17.0053    2.1891 C   0  0  0  0  0  0  0  0  0  0  0  0
    1.0949  -17.4949    1.4975 C   0  0  0  0  0  0  0  0  0  0  0  0
   -0.7213  -17.6437    3.0493 O   0  0  0  0  0  0  0  0  0  0  0  0
    2.2875  -17.0149    2.3506 C   0  0  0  0  0  0  0  0  0  0  0  0
    3.6796  -17.3732    1.7556 C   0  0  0  0  0  0  0  0  0  0  0  0
    4.1128  -17.6997    3.2159 C   0  0  0  0  0  0  0  0  0  0  0  0
    2.6111  -17.9709    3.5319 C   0  0  0  0  0  0  0  0  0  0  0  0
   -5.0653  -13.8934    3.9651 H   0  0  0  0  0  0  0  0  0  0  0  0
   -2.9839  -12.7843    4.3380 H   0  0  0  0  0  0  0  0  0  0  0  0
   -3.1323  -16.7847    1.6970 H   0  0  0  0  0  0  0  0  0  0  0  0
    0.2266  -13.8970    3.0248 H   0  0  0  0  0  0  0  0  0  0  0  0
   -0.5647  -12.4726    3.1332 H   0  0  0  0  0  0  0  0  0  0  0  0
   -0.3291  -13.3796    4.4706 H   0  0  0  0  0  0  0  0  0  0  0  0
   -0.2982  -15.2721    1.1567 H   0  0  0  0  0  0  0  0  0  0  0  0
    1.1534  -17.1100    0.5764 H   0  0  0  0  0  0  0  0  0  0  0  0
    1.0908  -18.4933    1.4420 H   0  0  0  0  0  0  0  0  0  0  0  0
    2.2127  -16.0572    2.6283 H   0  0  0  0  0  0  0  0  0  0  0  0
    4.1662  -16.6082    1.3337 H   0  0  0  0  0  0  0  0  0  0  0  0
    3.6819  -18.1546    1.1315 H   0  0  0  0  0  0  0  0  0  0  0  0
    4.5109  -16.9296    3.7144 H   0  0  0  0  0  0  0  0  0  0  0  0
    4.7080  -18.4982    3.3052 H   0  0  0  0  0  0  0  0  0  0  0  0
    2.3178  -18.9176    3.3990 H   0  0  0  0  0  0  0  0  0  0  0  0
    2.3056  -17.6500    4.4283 H   0  0  0  0  0  0  0  0  0  0  0  0
  1  2  2  0  0  0  0
  1  6  1  0  0  0  0
  1 17  1  0  0  0  0
  2  3  1  0  0  0  0
  2 18  1  0  0  0  0
  3  4  2  0  0  0  0
  3  8  1  0  0  0  0
  4  5  1  0  0  0  0
  4  9  1  0  0  0  0
  5  6  2  0  0  0  0
  5 19  1  0  0  0  0
  6  7  1  0  0  0  0
  8 20  1  0  0  0  0
  8 21  1  0  0  0  0
  8 22  1  0  0  0  0
  9 10  1  0  0  0  0
  9 23  1  0  0  0  0
 10 11  1  0  0  0  0
 10 12  2  0  0  0  0
 11 13  1  0  0  0  0
 11 24  1  0  0  0  0
 11 25  1  0  0  0  0
 13 14  1  0  0  0  0
 13 16  1  0  0  0  0
 13 26  1  0  0  0  0
 14 15  1  0  0  0  0
 14 27  1  0  0  0  0
 14 28  1  0  0  0  0
 15 16  1  0  0  0  0
 15 29  1  0  0  0  0
 15 30  1  0  0  0  0
 16 31  1  0  0  0  0
 16 32  1  0  0  0  0
M  END
>  <BIOSOLVEIT.HYDE_ESTIMATED_AFFINITY_LOWER_BOUNDARY [nM]>
153106481.582510

>  <BIOSOLVEIT.HYDE_ESTIMATED_AFFINITY_UPPER_BOUNDARY [nM]>
15212034182.383053

>  <BIOSOLVEIT.HYDE_LIGAND_EFFICIENCY range: ++, +, 0, -, -->
--

>  <BIOSOLVEIT.HYDE_LIGAND_LIPOPHILIC_EFFICIENCY range: ++, +, 0, -, -->
--

>  <BIOSOLVEIT.INTER_CLASH range: red, yellow, green>
green

>  <BIOSOLVEIT.INTRA_CLASH range: red, yellow, green>
green

>  <BIOSOLVEIT.LOGP>
3.77712

>  <BIOSOLVEIT.MOLECULAR WEIGHT>
237.728

>  <BIOSOLVEIT.MOLECULE_CHECKSUM>
MS4wNDc5NDsw

>  <BIOSOLVEIT.TORSION_QUALITY range: red, yellow, green, not rotatable>
green

>  <BIOSOLVEIT.TPSA>
29.1

$$$$
