Z410195728.****
 OpenBabel12172121453D
Hydescorer 1.1.2 b8048283
 37 38  0  0  0  0  0  0  0  0999 V2000
   -4.2593  -11.4206   -3.5840 C   0  0  0  0  0  0  0  0  0  0  0  0
   -4.7587  -11.5058   -2.2866 C   0  0  0  0  0  0  0  0  0  0  0  0
   -5.9955  -10.9478   -1.9621 C   0  0  0  0  0  0  0  0  0  0  0  0
   -6.7273  -10.2982   -2.9695 C   0  0  0  0  0  0  0  0  0  0  0  0
   -6.2318  -10.2041   -4.2716 C   0  0  0  0  0  0  0  0  0  0  0  0
   -4.9975  -10.7696   -4.5734 C   0  0  0  0  0  0  0  0  0  0  0  0
   -4.3638  -10.6617   -6.1833 Cl  0  0  0  0  0  0  0  0  0  0  0  0
   -6.5186  -11.0617   -0.5398 C   0  0  0  0  0  0  0  0  0  0  0  0
   -7.9690   -9.7079   -2.6273 N   0  0  0  0  0  0  0  0  0  0  0  0
   -9.1829   -9.9949   -3.1765 C   0  0  0  0  0  0  0  0  0  0  0  0
  -10.1877   -9.2611   -2.6378 N   0  0  0  0  0  0  0  0  0  0  0  0
   -9.3627  -10.8256   -4.0557 O   0  0  0  0  0  0  0  0  0  0  0  0
  -11.5766   -9.4090   -3.0816 C   0  0  0  0  0  0  0  0  0  0  0  0
  -12.1843  -10.5391   -2.2345 C   0  0  0  0  0  0  0  0  0  0  0  0
  -11.4657  -10.7990   -0.9061 C   0  0  0  0  0  0  0  0  0  0  0  0
  -12.4920  -11.5285   -0.0340 C   0  0  0  0  0  0  0  0  0  0  0  0
  -13.8596  -11.2570   -0.6723 C   0  0  0  0  0  0  0  0  0  0  0  0
  -13.6007  -10.2139   -1.7589 C   0  0  0  0  0  0  0  0  0  0  0  0
   -3.3725  -11.8256   -3.8064 H   0  0  0  0  0  0  0  0  0  0  0  0
   -4.2252  -11.9716   -1.5806 H   0  0  0  0  0  0  0  0  0  0  0  0
   -6.7592   -9.7350   -4.9799 H   0  0  0  0  0  0  0  0  0  0  0  0
   -7.4101  -10.6133   -0.4756 H   0  0  0  0  0  0  0  0  0  0  0  0
   -6.6124  -12.0267   -0.2954 H   0  0  0  0  0  0  0  0  0  0  0  0
   -5.8773  -10.6198    0.0875 H   0  0  0  0  0  0  0  0  0  0  0  0
   -7.9531   -9.0105   -1.9107 H   0  0  0  0  0  0  0  0  0  0  0  0
   -9.9752   -8.6007   -1.9176 H   0  0  0  0  0  0  0  0  0  0  0  0
  -11.6060   -9.6497   -4.0517 H   0  0  0  0  0  0  0  0  0  0  0  0
  -12.0795   -8.5573   -2.9340 H   0  0  0  0  0  0  0  0  0  0  0  0
  -12.2013  -11.3824   -2.7717 H   0  0  0  0  0  0  0  0  0  0  0  0
  -11.1925   -9.9366   -0.4800 H   0  0  0  0  0  0  0  0  0  0  0  0
  -10.6576  -11.3704   -1.0498 H   0  0  0  0  0  0  0  0  0  0  0  0
  -12.4684  -11.1736    0.9006 H   0  0  0  0  0  0  0  0  0  0  0  0
  -12.3029  -12.5103   -0.0227 H   0  0  0  0  0  0  0  0  0  0  0  0
  -14.4991  -10.9010    0.0091 H   0  0  0  0  0  0  0  0  0  0  0  0
  -14.2312  -12.0945   -1.0727 H   0  0  0  0  0  0  0  0  0  0  0  0
  -14.2587  -10.3054   -2.5064 H   0  0  0  0  0  0  0  0  0  0  0  0
  -13.6484   -9.2879   -1.3843 H   0  0  0  0  0  0  0  0  0  0  0  0
  1  2  2  0  0  0  0
  1  6  1  0  0  0  0
  1 19  1  0  0  0  0
  2  3  1  0  0  0  0
  2 20  1  0  0  0  0
  3  4  2  0  0  0  0
  3  8  1  0  0  0  0
  4  5  1  0  0  0  0
  4  9  1  0  0  0  0
  5  6  2  0  0  0  0
  5 21  1  0  0  0  0
  6  7  1  0  0  0  0
  8 22  1  0  0  0  0
  8 23  1  0  0  0  0
  8 24  1  0  0  0  0
  9 10  1  0  0  0  0
  9 25  1  0  0  0  0
 10 11  1  0  0  0  0
 10 12  2  0  0  0  0
 11 13  1  0  0  0  0
 11 26  1  0  0  0  0
 13 14  1  0  0  0  0
 13 27  1  0  0  0  0
 13 28  1  0  0  0  0
 14 15  1  0  0  0  0
 14 18  1  0  0  0  0
 14 29  1  0  0  0  0
 15 16  1  0  0  0  0
 15 30  1  0  0  0  0
 15 31  1  0  0  0  0
 16 17  1  0  0  0  0
 16 32  1  0  0  0  0
 16 33  1  0  0  0  0
 17 18  1  0  0  0  0
 17 34  1  0  0  0  0
 17 35  1  0  0  0  0
 18 36  1  0  0  0  0
 18 37  1  0  0  0  0
M  END
>  <BIOSOLVEIT.HYDE_ESTIMATED_AFFINITY_LOWER_BOUNDARY [nM]>
260208.352970

>  <BIOSOLVEIT.HYDE_ESTIMATED_AFFINITY_UPPER_BOUNDARY [nM]>
25853238.341156

>  <BIOSOLVEIT.HYDE_LIGAND_EFFICIENCY range: ++, +, 0, -, -->
--

>  <BIOSOLVEIT.HYDE_LIGAND_LIPOPHILIC_EFFICIENCY range: ++, +, 0, -, -->
--

>  <BIOSOLVEIT.INTER_CLASH range: red, yellow, green>
green

>  <BIOSOLVEIT.INTRA_CLASH range: red, yellow, green>
green

>  <BIOSOLVEIT.LOGP>
3.96012

>  <BIOSOLVEIT.MOLECULAR WEIGHT>
266.77

>  <BIOSOLVEIT.MOLECULE_CHECKSUM>
LTE0Ljc2MTQ7MC44MjAwNzc=

>  <BIOSOLVEIT.TORSION_QUALITY range: red, yellow, green, not rotatable>
green

>  <BIOSOLVEIT.TPSA>
41.13

$$$$
