Z279577954.****
 OpenBabel12172121453D
Hydescorer 1.1.2 b8048283
 33 34  0  0  0  0  0  0  0  0999 V2000
   -7.5777  -13.8261    1.0562 C   0  0  0  0  0  0  0  0  0  0  0  0
   -7.3597  -14.8511    1.9682 C   0  0  0  0  0  0  0  0  0  0  0  0
   -6.2193  -14.8135    2.7671 C   0  0  0  0  0  0  0  0  0  0  0  0
   -5.3274  -13.7397    2.6418 C   0  0  0  0  0  0  0  0  0  0  0  0
   -5.5411  -12.7135    1.7189 C   0  0  0  0  0  0  0  0  0  0  0  0
   -6.6783  -12.7620    0.9083 C   0  0  0  0  0  0  0  0  0  0  0  0
   -6.9914  -11.7599   -0.0602 N   0  0  0  0  0  0  0  0  0  0  0  0
   -6.1911  -11.2221   -1.0316 C   0  0  0  0  0  0  0  0  0  0  0  0
   -6.8257  -10.1733   -1.9022 C   0  0  0  0  0  0  0  0  0  0  0  0
   -5.0489  -11.5867   -1.1887 O   0  0  0  0  0  0  0  0  0  0  0  0
   -8.6948  -13.8680    0.2946 F   0  0  0  0  0  0  0  0  0  0  0  0
   -4.1668  -13.6748    3.4394 N   0  0  0  0  0  0  0  0  0  0  0  0
   -2.8656  -13.8225    3.0384 C   0  0  0  0  0  0  0  0  0  0  0  0
   -1.7328  -13.7337    3.9669 C   0  0  0  0  0  0  0  0  0  0  0  0
   -2.7377  -14.0313    1.8428 O   0  0  0  0  0  0  0  0  0  0  0  0
   -1.7647  -12.8019    5.0139 C   0  0  0  0  0  0  0  0  0  0  0  0
   -0.6984  -12.6929    5.8989 C   0  0  0  0  0  0  0  0  0  0  0  0
    0.4126  -13.5194    5.7567 C   0  0  0  0  0  0  0  0  0  0  0  0
    0.4530  -14.4596    4.7313 C   0  0  0  0  0  0  0  0  0  0  0  0
   -0.6129  -14.5709    3.8459 C   0  0  0  0  0  0  0  0  0  0  0  0
   -8.0119  -15.6047    2.0500 H   0  0  0  0  0  0  0  0  0  0  0  0
   -6.0386  -15.5458    3.4238 H   0  0  0  0  0  0  0  0  0  0  0  0
   -4.8917  -11.9573    1.6395 H   0  0  0  0  0  0  0  0  0  0  0  0
   -7.9244  -11.4018   -0.0235 H   0  0  0  0  0  0  0  0  0  0  0  0
   -6.1590   -9.8493   -2.5734 H   0  0  0  0  0  0  0  0  0  0  0  0
   -7.6130  -10.5662   -2.3773 H   0  0  0  0  0  0  0  0  0  0  0  0
   -7.1270   -9.4069   -1.3349 H   0  0  0  0  0  0  0  0  0  0  0  0
   -4.3106  -13.5003    4.4135 H   0  0  0  0  0  0  0  0  0  0  0  0
   -2.5628  -12.2098    5.1252 H   0  0  0  0  0  0  0  0  0  0  0  0
   -0.7294  -12.0202    6.6383 H   0  0  0  0  0  0  0  0  0  0  0  0
    1.1814  -13.4376    6.3909 H   0  0  0  0  0  0  0  0  0  0  0  0
    1.2496  -15.0558    4.6313 H   0  0  0  0  0  0  0  0  0  0  0  0
   -0.5815  -15.2539    3.1162 H   0  0  0  0  0  0  0  0  0  0  0  0
  1  2  2  0  0  0  0
  1  6  1  0  0  0  0
  1 11  1  0  0  0  0
  2  3  1  0  0  0  0
  2 21  1  0  0  0  0
  3  4  2  0  0  0  0
  3 22  1  0  0  0  0
  4  5  1  0  0  0  0
  4 12  1  0  0  0  0
  5  6  2  0  0  0  0
  5 23  1  0  0  0  0
  6  7  1  0  0  0  0
  7  8  1  0  0  0  0
  7 24  1  0  0  0  0
  8  9  1  0  0  0  0
  8 10  2  0  0  0  0
  9 25  1  0  0  0  0
  9 26  1  0  0  0  0
  9 27  1  0  0  0  0
 12 13  1  0  0  0  0
 12 28  1  0  0  0  0
 13 14  1  0  0  0  0
 13 15  2  0  0  0  0
 14 16  2  0  0  0  0
 14 20  1  0  0  0  0
 16 17  1  0  0  0  0
 16 29  1  0  0  0  0
 17 18  2  0  0  0  0
 17 30  1  0  0  0  0
 18 19  1  0  0  0  0
 18 31  1  0  0  0  0
 19 20  2  0  0  0  0
 19 32  1  0  0  0  0
 20 33  1  0  0  0  0
M  END
>  <BIOSOLVEIT.HYDE_ESTIMATED_AFFINITY_LOWER_BOUNDARY [nM]>
31476969394.895123

>  <BIOSOLVEIT.HYDE_ESTIMATED_AFFINITY_UPPER_BOUNDARY [nM]>
3127423015954.583008

>  <BIOSOLVEIT.HYDE_LIGAND_EFFICIENCY range: ++, +, 0, -, -->
--

>  <BIOSOLVEIT.HYDE_LIGAND_LIPOPHILIC_EFFICIENCY range: ++, +, 0, -, -->
--

>  <BIOSOLVEIT.INTER_CLASH range: red, yellow, green>
green

>  <BIOSOLVEIT.INTRA_CLASH range: red, yellow, green>
green

>  <BIOSOLVEIT.LOGP>
3.0364

>  <BIOSOLVEIT.MOLECULAR WEIGHT>
272.278

>  <BIOSOLVEIT.MOLECULE_CHECKSUM>
MTQuMjUwNjsw

>  <BIOSOLVEIT.TORSION_QUALITY range: red, yellow, green, not rotatable>
yellow

>  <BIOSOLVEIT.TPSA>
58.2

$$$$
