Z316554572.****
 OpenBabel12172121453D
Hydescorer 1.1.2 b8048283
 39 40  0  0  0  0  0  0  0  0999 V2000
   -7.2457  -10.6514   -3.9788 C   0  0  0  0  0  0  0  0  0  0  0  0
   -6.9177  -10.8928   -5.3088 C   0  0  0  0  0  0  0  0  0  0  0  0
   -5.5855  -11.0182   -5.6864 C   0  0  0  0  0  0  0  0  0  0  0  0
   -4.5803  -10.9006   -4.7318 C   0  0  0  0  0  0  0  0  0  0  0  0
   -4.9075  -10.6588   -3.4016 C   0  0  0  0  0  0  0  0  0  0  0  0
   -6.2423  -10.5353   -3.0165 C   0  0  0  0  0  0  0  0  0  0  0  0
   -6.5981  -10.2957   -1.5557 C   0  0  0  0  0  0  0  0  0  0  0  0
   -6.1017  -11.4742   -0.7385 C   0  0  0  0  0  0  0  0  0  0  0  0
   -6.9322  -11.9765    0.2345 N   0  0  0  0  0  0  0  0  0  0  0  0
   -4.9916  -11.9376   -0.9062 O   0  0  0  0  0  0  0  0  0  0  0  0
   -6.6831  -13.0599    1.1101 C   0  0  0  0  0  0  0  0  0  0  0  0
   -7.6718  -14.0410    1.2161 C   0  0  0  0  0  0  0  0  0  0  0  0
   -7.4740  -15.1296    2.0639 C   0  0  0  0  0  0  0  0  0  0  0  0
   -6.2985  -15.2388    2.8034 C   0  0  0  0  0  0  0  0  0  0  0  0
   -5.3208  -14.2494    2.6846 C   0  0  0  0  0  0  0  0  0  0  0  0
   -5.4908  -13.1666    1.8263 C   0  0  0  0  0  0  0  0  0  0  0  0
   -4.1417  -14.3800    3.4426 N   0  0  0  0  0  0  0  0  0  0  0  0
   -2.8590  -14.2816    2.9993 C   0  0  0  0  0  0  0  0  0  0  0  0
   -1.6513  -14.4409    3.9110 C   0  0  0  0  0  0  0  0  0  0  0  0
   -2.7430  -14.0988    1.8080 O   0  0  0  0  0  0  0  0  0  0  0  0
   -0.5166  -15.0912    3.0900 C   0  0  0  0  0  0  0  0  0  0  0  0
   -8.2050  -10.5605   -3.7112 H   0  0  0  0  0  0  0  0  0  0  0  0
   -7.6409  -10.9762   -5.9943 H   0  0  0  0  0  0  0  0  0  0  0  0
   -5.3501  -11.1927   -6.6425 H   0  0  0  0  0  0  0  0  0  0  0  0
   -3.6217  -10.9900   -5.0021 H   0  0  0  0  0  0  0  0  0  0  0  0
   -4.1824  -10.5732   -2.7184 H   0  0  0  0  0  0  0  0  0  0  0  0
   -7.5900  -10.2127   -1.4596 H   0  0  0  0  0  0  0  0  0  0  0  0
   -6.1607   -9.4553   -1.2356 H   0  0  0  0  0  0  0  0  0  0  0  0
   -7.8174  -11.5226    0.3357 H   0  0  0  0  0  0  0  0  0  0  0  0
   -8.5166  -13.9628    0.6868 H   0  0  0  0  0  0  0  0  0  0  0  0
   -8.1787  -15.8349    2.1416 H   0  0  0  0  0  0  0  0  0  0  0  0
   -6.1563  -16.0184    3.4135 H   0  0  0  0  0  0  0  0  0  0  0  0
   -4.7720  -12.4787    1.7251 H   0  0  0  0  0  0  0  0  0  0  0  0
   -4.2604  -14.5662    4.4179 H   0  0  0  0  0  0  0  0  0  0  0  0
   -1.8868  -15.0257    4.6873 H   0  0  0  0  0  0  0  0  0  0  0  0
   -1.3580  -13.5452    4.2455 H   0  0  0  0  0  0  0  0  0  0  0  0
    0.2903  -15.2065    3.6694 H   0  0  0  0  0  0  0  0  0  0  0  0
   -0.8170  -15.9844    2.7553 H   0  0  0  0  0  0  0  0  0  0  0  0
   -0.2881  -14.5039    2.3135 H   0  0  0  0  0  0  0  0  0  0  0  0
  1  2  2  0  0  0  0
  1  6  1  0  0  0  0
  1 22  1  0  0  0  0
  2  3  1  0  0  0  0
  2 23  1  0  0  0  0
  3  4  2  0  0  0  0
  3 24  1  0  0  0  0
  4  5  1  0  0  0  0
  4 25  1  0  0  0  0
  5  6  2  0  0  0  0
  5 26  1  0  0  0  0
  6  7  1  0  0  0  0
  7  8  1  0  0  0  0
  7 27  1  0  0  0  0
  7 28  1  0  0  0  0
  8  9  1  0  0  0  0
  8 10  2  0  0  0  0
  9 11  1  0  0  0  0
  9 29  1  0  0  0  0
 11 12  2  0  0  0  0
 11 16  1  0  0  0  0
 12 13  1  0  0  0  0
 12 30  1  0  0  0  0
 13 14  2  0  0  0  0
 13 31  1  0  0  0  0
 14 15  1  0  0  0  0
 14 32  1  0  0  0  0
 15 16  2  0  0  0  0
 15 17  1  0  0  0  0
 16 33  1  0  0  0  0
 17 18  1  0  0  0  0
 17 34  1  0  0  0  0
 18 19  1  0  0  0  0
 18 20  2  0  0  0  0
 19 21  1  0  0  0  0
 19 35  1  0  0  0  0
 19 36  1  0  0  0  0
 21 37  1  0  0  0  0
 21 38  1  0  0  0  0
 21 39  1  0  0  0  0
M  END
>  <BIOSOLVEIT.HYDE_ESTIMATED_AFFINITY_LOWER_BOUNDARY [nM]>
12430174.545836

>  <BIOSOLVEIT.HYDE_ESTIMATED_AFFINITY_UPPER_BOUNDARY [nM]>
1235011334.137079

>  <BIOSOLVEIT.HYDE_LIGAND_EFFICIENCY range: ++, +, 0, -, -->
--

>  <BIOSOLVEIT.HYDE_LIGAND_LIPOPHILIC_EFFICIENCY range: ++, +, 0, -, -->
--

>  <BIOSOLVEIT.INTER_CLASH range: red, yellow, green>
green

>  <BIOSOLVEIT.INTRA_CLASH range: red, yellow, green>
yellow

>  <BIOSOLVEIT.LOGP>
3.2163

>  <BIOSOLVEIT.MOLECULAR WEIGHT>
282.341

>  <BIOSOLVEIT.MOLECULE_CHECKSUM>
LTUuMTc2NzQ7MC4yNDY1MTE=

>  <BIOSOLVEIT.TORSION_QUALITY range: red, yellow, green, not rotatable>
yellow

>  <BIOSOLVEIT.TPSA>
58.2

$$$$
