Z1203922336.****
 OpenBabel12172121453D
Hydescorer 1.1.2 b8048283
 41 42  0  0  0  0  0  0  0  0999 V2000
  -11.0090  -13.9177    4.1181 C   0  0  0  0  0  0  0  0  0  0  0  0
  -10.4536  -14.3368    2.9123 C   0  0  0  0  0  0  0  0  0  0  0  0
   -9.0691  -14.4045    2.7516 C   0  0  0  0  0  0  0  0  0  0  0  0
   -8.2485  -14.0430    3.8329 C   0  0  0  0  0  0  0  0  0  0  0  0
   -8.7959  -13.6268    5.0469 C   0  0  0  0  0  0  0  0  0  0  0  0
  -10.1798  -13.5638    5.1836 C   0  0  0  0  0  0  0  0  0  0  0  0
  -10.8812  -13.0514    6.6825 Cl  0  0  0  0  0  0  0  0  0  0  0  0
   -8.4897  -14.8587    1.4229 C   0  0  0  0  0  0  0  0  0  0  0  0
   -6.8426  -14.1454    3.6696 N   0  0  0  0  0  0  0  0  0  0  0  0
   -6.0672  -15.2684    3.8082 C   0  0  0  0  0  0  0  0  0  0  0  0
   -4.5694  -15.0831    3.5711 C   0  0  1  0  0  0  0  0  0  0  0  0
   -6.5606  -16.3229    4.1535 O   0  0  0  0  0  0  0  0  0  0  0  0
   -3.9231  -14.7759    4.9504 C   0  0  0  0  0  0  0  0  0  0  0  0
   -3.9919  -16.3981    2.9898 C   0  0  0  0  0  0  0  0  0  0  0  0
   -2.4375  -14.3941    4.7870 C   0  0  0  0  0  0  0  0  0  0  0  0
   -2.0942  -12.9416    5.1313 C   0  0  0  0  0  0  0  0  0  0  0  0
   -0.5905  -12.9497    5.4260 C   0  0  0  0  0  0  0  0  0  0  0  0
   -0.2242  -14.4087    5.7215 C   0  0  0  0  0  0  0  0  0  0  0  0
   -1.5549  -15.1571    5.7743 C   0  0  0  0  0  0  0  0  0  0  0  0
  -12.0027  -13.8702    4.2209 H   0  0  0  0  0  0  0  0  0  0  0  0
  -11.0530  -14.5919    2.1536 H   0  0  0  0  0  0  0  0  0  0  0  0
   -8.2006  -13.3764    5.8104 H   0  0  0  0  0  0  0  0  0  0  0  0
   -7.4911  -14.8509    1.4746 H   0  0  0  0  0  0  0  0  0  0  0  0
   -8.8059  -15.7856    1.2208 H   0  0  0  0  0  0  0  0  0  0  0  0
   -8.7908  -14.2384    0.6985 H   0  0  0  0  0  0  0  0  0  0  0  0
   -6.3624  -13.3029    3.4256 H   0  0  0  0  0  0  0  0  0  0  0  0
   -4.4103  -14.3256    2.9379 H   0  0  0  0  0  0  0  0  0  0  0  0
   -3.9910  -15.5866    5.5320 H   0  0  0  0  0  0  0  0  0  0  0  0
   -4.4115  -14.0160    5.3793 H   0  0  0  0  0  0  0  0  0  0  0  0
   -3.0108  -16.2893    2.8300 H   0  0  0  0  0  0  0  0  0  0  0  0
   -4.1433  -17.1441    3.6383 H   0  0  0  0  0  0  0  0  0  0  0  0
   -4.4488  -16.6095    2.1258 H   0  0  0  0  0  0  0  0  0  0  0  0
   -2.1426  -14.5940    3.8525 H   0  0  0  0  0  0  0  0  0  0  0  0
   -2.6082  -12.6396    5.9342 H   0  0  0  0  0  0  0  0  0  0  0  0
   -2.2980  -12.3397    4.3592 H   0  0  0  0  0  0  0  0  0  0  0  0
   -0.3888  -12.3737    6.2182 H   0  0  0  0  0  0  0  0  0  0  0  0
   -0.0794  -12.6171    4.6333 H   0  0  0  0  0  0  0  0  0  0  0  0
    0.2521  -14.4794    6.5979 H   0  0  0  0  0  0  0  0  0  0  0  0
    0.3564  -14.7778    4.9959 H   0  0  0  0  0  0  0  0  0  0  0  0
   -1.4406  -16.1087    5.4890 H   0  0  0  0  0  0  0  0  0  0  0  0
   -1.9435  -15.1295    6.6953 H   0  0  0  0  0  0  0  0  0  0  0  0
  1  2  2  0  0  0  0
  1  6  1  0  0  0  0
  1 20  1  0  0  0  0
  2  3  1  0  0  0  0
  2 21  1  0  0  0  0
  3  4  2  0  0  0  0
  3  8  1  0  0  0  0
  4  5  1  0  0  0  0
  4  9  1  0  0  0  0
  5  6  2  0  0  0  0
  5 22  1  0  0  0  0
  6  7  1  0  0  0  0
  8 23  1  0  0  0  0
  8 24  1  0  0  0  0
  8 25  1  0  0  0  0
  9 10  1  0  0  0  0
  9 26  1  0  0  0  0
 10 11  1  0  0  0  0
 10 12  2  0  0  0  0
 11 13  1  0  0  0  0
 11 14  1  0  0  0  0
 11 27  1  6  0  0  0
 13 15  1  0  0  0  0
 13 28  1  0  0  0  0
 13 29  1  0  0  0  0
 14 30  1  0  0  0  0
 14 31  1  0  0  0  0
 14 32  1  0  0  0  0
 15 16  1  0  0  0  0
 15 19  1  0  0  0  0
 15 33  1  0  0  0  0
 16 17  1  0  0  0  0
 16 34  1  0  0  0  0
 16 35  1  0  0  0  0
 17 18  1  0  0  0  0
 17 36  1  0  0  0  0
 17 37  1  0  0  0  0
 18 19  1  0  0  0  0
 18 38  1  0  0  0  0
 18 39  1  0  0  0  0
 19 40  1  0  0  0  0
 19 41  1  0  0  0  0
M  END
>  <BIOSOLVEIT.HYDE_ESTIMATED_AFFINITY_LOWER_BOUNDARY [nM]>
23601416.505545

>  <BIOSOLVEIT.HYDE_ESTIMATED_AFFINITY_UPPER_BOUNDARY [nM]>
2344940272.443888

>  <BIOSOLVEIT.HYDE_LIGAND_EFFICIENCY range: ++, +, 0, -, -->
--

>  <BIOSOLVEIT.HYDE_LIGAND_LIPOPHILIC_EFFICIENCY range: ++, +, 0, -, -->
--

>  <BIOSOLVEIT.INTER_CLASH range: red, yellow, green>
green

>  <BIOSOLVEIT.INTRA_CLASH range: red, yellow, green>
green

>  <BIOSOLVEIT.LOGP>
4.80332

>  <BIOSOLVEIT.MOLECULAR WEIGHT>
279.809

>  <BIOSOLVEIT.MOLECULE_CHECKSUM>
LTMuNTg3Mjg7MC4xODg4MDQ=

>  <BIOSOLVEIT.TORSION_QUALITY range: red, yellow, green, not rotatable>
yellow

>  <BIOSOLVEIT.TPSA>
29.1

$$$$
