G6.sdf
 OpenBabel12172121453D
Hydescorer 1.1.2 b8048283
 61 63  0  0  0  0  0  0  0  0999 V2000
   -2.8044  -14.0252   -6.9775 C   0  0  0  0  0  0  0  0  0  0  0  0
   -2.8722  -12.6375   -7.0819 C   0  0  0  0  0  0  0  0  0  0  0  0
   -3.3579  -11.8781   -6.0211 C   0  0  0  0  0  0  0  0  0  0  0  0
   -3.7820  -12.5172   -4.8519 C   0  0  0  0  0  0  0  0  0  0  0  0
   -3.7065  -13.9023   -4.7325 C   0  0  0  0  0  0  0  0  0  0  0  0
   -3.2228  -14.6543   -5.8012 C   0  0  0  0  0  0  0  0  0  0  0  0
   -3.1415  -16.3799   -5.6719 Cl  0  0  0  0  0  0  0  0  0  0  0  0
   -4.2796  -11.7805   -3.7743 N   0  0  0  0  0  0  0  0  0  0  0  0
   -4.8351  -10.4621   -4.0775 C   0  0  0  0  0  0  0  0  0  0  0  0
   -6.2011  -10.4850   -3.4269 C   0  0  0  0  0  0  0  0  0  0  0  0
   -6.5172  -10.1605   -2.1341 C   0  0  0  0  0  0  0  0  0  0  0  0
   -7.8862  -10.2659   -1.8605 C   0  0  0  0  0  0  0  0  0  0  0  0
   -8.6326  -10.6673   -2.9490 C   0  0  0  0  0  0  0  0  0  0  0  0
   -7.6066  -10.9303   -4.3245 S   0  0  0  0  0  0  0  0  0  0  0  0
  -10.0698  -10.8519   -3.0480 C   0  0  0  0  0  0  0  0  0  0  0  0
  -10.8371  -10.6382   -1.9388 N   0  0  0  0  0  0  0  0  0  0  0  0
  -12.3072  -10.8087   -1.9722 C   0  0  2  0  0  0  0  0  0  0  0  0
  -12.9161   -9.6893   -2.8412 C   0  0  0  0  0  0  0  0  0  0  0  0
  -12.8248  -10.6913   -0.5170 C   0  0  0  0  0  0  0  0  0  0  0  0
  -13.6256   -9.9063   -3.8210 O   0  0  0  0  0  0  0  0  0  0  0  0
  -12.6982   -8.4362   -2.4287 N   0  0  0  0  0  0  0  0  0  0  0  0
  -13.1891   -7.2419   -3.1113 C   0  0  0  0  0  0  0  0  0  0  0  0
  -14.6371   -6.9620   -2.7030 C   0  0  0  0  0  0  0  0  0  0  0  0
  -15.1978   -5.9996   -3.5833 O   0  0  0  0  0  0  0  0  0  0  0  0
  -16.4359   -5.4883   -3.1126 C   0  0  0  0  0  0  0  0  0  0  0  0
  -14.3550  -10.8860   -0.4903 C   0  0  0  0  0  0  0  0  0  0  0  0
  -14.9863  -10.8211    0.9029 C   0  0  0  0  0  0  0  0  0  0  0  0
  -16.3319  -11.5387    0.7552 C   0  0  0  0  0  0  0  0  0  0  0  0
  -16.2101  -12.4129   -0.4988 C   0  0  0  0  0  0  0  0  0  0  0  0
  -14.7529  -12.2908   -0.9416 C   0  0  0  0  0  0  0  0  0  0  0  0
  -10.6604  -11.1586   -4.0816 O   0  0  0  0  0  0  0  0  0  0  0  0
   -2.4576  -14.5694   -7.7414 H   0  0  0  0  0  0  0  0  0  0  0  0
   -2.5710  -12.1855   -7.9215 H   0  0  0  0  0  0  0  0  0  0  0  0
   -3.4032  -10.8819   -6.0947 H   0  0  0  0  0  0  0  0  0  0  0  0
   -3.9966  -14.3530   -3.8883 H   0  0  0  0  0  0  0  0  0  0  0  0
   -4.2570  -12.1376   -2.8405 H   0  0  0  0  0  0  0  0  0  0  0  0
   -4.9137  -10.3277   -5.0653 H   0  0  0  0  0  0  0  0  0  0  0  0
   -4.2669   -9.7381   -3.6867 H   0  0  0  0  0  0  0  0  0  0  0  0
   -5.8397   -9.8773   -1.4553 H   0  0  0  0  0  0  0  0  0  0  0  0
   -8.2839  -10.0695   -0.9642 H   0  0  0  0  0  0  0  0  0  0  0  0
  -10.3963  -10.3604   -1.0852 H   0  0  0  0  0  0  0  0  0  0  0  0
  -12.5416  -11.7043   -2.3501 H   0  0  0  0  0  0  0  0  0  0  0  0
  -12.5987   -9.7865   -0.1561 H   0  0  0  0  0  0  0  0  0  0  0  0
  -12.3907  -11.3933    0.0475 H   0  0  0  0  0  0  0  0  0  0  0  0
  -12.1618   -8.3078   -1.5946 H   0  0  0  0  0  0  0  0  0  0  0  0
  -13.1457   -7.3845   -4.1001 H   0  0  0  0  0  0  0  0  0  0  0  0
  -12.6179   -6.4599   -2.8619 H   0  0  0  0  0  0  0  0  0  0  0  0
  -14.6578   -6.6101   -1.7672 H   0  0  0  0  0  0  0  0  0  0  0  0
  -15.1672   -7.8085   -2.7526 H   0  0  0  0  0  0  0  0  0  0  0  0
  -16.7889   -4.8172   -3.7645 H   0  0  0  0  0  0  0  0  0  0  0  0
  -17.0914   -6.2376   -3.0176 H   0  0  0  0  0  0  0  0  0  0  0  0
  -16.2994   -5.0502   -2.2241 H   0  0  0  0  0  0  0  0  0  0  0  0
  -14.7882  -10.2089   -1.0851 H   0  0  0  0  0  0  0  0  0  0  0  0
  -15.1223   -9.8713    1.1843 H   0  0  0  0  0  0  0  0  0  0  0  0
  -14.4096  -11.2881    1.5732 H   0  0  0  0  0  0  0  0  0  0  0  0
  -17.0701  -10.8733    0.6444 H   0  0  0  0  0  0  0  0  0  0  0  0
  -16.5128  -12.1065    1.5583 H   0  0  0  0  0  0  0  0  0  0  0  0
  -16.8224  -12.0814   -1.2166 H   0  0  0  0  0  0  0  0  0  0  0  0
  -16.4318  -13.3641   -0.2845 H   0  0  0  0  0  0  0  0  0  0  0  0
  -14.1853  -12.9830   -0.4957 H   0  0  0  0  0  0  0  0  0  0  0  0
  -14.6726  -12.3828   -1.9342 H   0  0  0  0  0  0  0  0  0  0  0  0
  1  2  2  0  0  0  0
  1  6  1  0  0  0  0
  1 32  1  0  0  0  0
  2  3  1  0  0  0  0
  2 33  1  0  0  0  0
  3  4  2  0  0  0  0
  3 34  1  0  0  0  0
  4  5  1  0  0  0  0
  4  8  1  0  0  0  0
  5  6  2  0  0  0  0
  5 35  1  0  0  0  0
  6  7  1  0  0  0  0
  8  9  1  0  0  0  0
  8 36  1  0  0  0  0
  9 10  1  0  0  0  0
  9 37  1  0  0  0  0
  9 38  1  0  0  0  0
 10 11  2  0  0  0  0
 10 14  1  0  0  0  0
 11 12  1  0  0  0  0
 11 39  1  0  0  0  0
 12 13  2  0  0  0  0
 12 40  1  0  0  0  0
 13 14  1  0  0  0  0
 13 15  1  0  0  0  0
 15 16  1  0  0  0  0
 15 31  2  0  0  0  0
 16 17  1  0  0  0  0
 16 41  1  0  0  0  0
 17 18  1  0  0  0  0
 17 19  1  0  0  0  0
 17 42  1  6  0  0  0
 18 20  2  0  0  0  0
 18 21  1  0  0  0  0
 19 26  1  0  0  0  0
 19 43  1  0  0  0  0
 19 44  1  0  0  0  0
 21 22  1  0  0  0  0
 21 45  1  0  0  0  0
 22 23  1  0  0  0  0
 22 46  1  0  0  0  0
 22 47  1  0  0  0  0
 23 24  1  0  0  0  0
 23 48  1  0  0  0  0
 23 49  1  0  0  0  0
 24 25  1  0  0  0  0
 25 50  1  0  0  0  0
 25 51  1  0  0  0  0
 25 52  1  0  0  0  0
 26 27  1  0  0  0  0
 26 30  1  0  0  0  0
 26 53  1  0  0  0  0
 27 28  1  0  0  0  0
 27 54  1  0  0  0  0
 27 55  1  0  0  0  0
 28 29  1  0  0  0  0
 28 56  1  0  0  0  0
 28 57  1  0  0  0  0
 29 30  1  0  0  0  0
 29 58  1  0  0  0  0
 29 59  1  0  0  0  0
 30 60  1  0  0  0  0
 30 61  1  0  0  0  0
M  END
>  <BIOSOLVEIT.HYDE_ESTIMATED_AFFINITY_LOWER_BOUNDARY [nM]>
20747620.478137

>  <BIOSOLVEIT.HYDE_ESTIMATED_AFFINITY_UPPER_BOUNDARY [nM]>
2061398764.143433

>  <BIOSOLVEIT.HYDE_LIGAND_EFFICIENCY range: ++, +, 0, -, -->
--

>  <BIOSOLVEIT.HYDE_LIGAND_LIPOPHILIC_EFFICIENCY range: ++, +, 0, -, -->
--

>  <BIOSOLVEIT.INTER_CLASH range: red, yellow, green>
green

>  <BIOSOLVEIT.INTRA_CLASH range: red, yellow, green>
green

>  <BIOSOLVEIT.LOGP>
4.4549

>  <BIOSOLVEIT.MOLECULAR WEIGHT>
464.026

>  <BIOSOLVEIT.MOLECULE_CHECKSUM>
LTMuOTA2NzY7MC4xMjYwMjU=

>  <BIOSOLVEIT.TORSION_QUALITY range: red, yellow, green, not rotatable>
green

>  <BIOSOLVEIT.TPSA>
79.46

$$$$
