G1.sdf
 OpenBabel12172121453D
Hydescorer 1.1.2 b8048283
 69 72  0  0  0  0  0  0  0  0999 V2000
   -5.6415  -10.7014   -2.8718 C   0  0  0  0  0  0  0  0  0  0  0  0
   -5.3077  -11.0842   -1.6171 C   0  0  0  0  0  0  0  0  0  0  0  0
   -6.4923  -11.1720   -0.8854 C   0  0  0  0  0  0  0  0  0  0  0  0
   -7.5159  -10.8354   -1.7237 C   0  0  0  0  0  0  0  0  0  0  0  0
   -6.9792  -10.5451   -2.9563 O   0  0  0  0  0  0  0  0  0  0  0  0
   -8.9532  -10.7544   -1.4849 C   0  0  0  0  0  0  0  0  0  0  0  0
   -9.6777  -11.9103   -1.4097 N   0  0  0  0  0  0  0  0  0  0  0  0
   -9.5722   -9.7046   -1.3112 O   0  0  0  0  0  0  0  0  0  0  0  0
  -11.1427  -11.8952   -1.1687 C   0  0  2  0  0  0  0  0  0  0  0  0
  -11.4738  -13.0203   -0.1685 C   0  0  0  0  0  0  0  0  0  0  0  0
  -11.8398  -12.1716   -2.5256 C   0  0  0  0  0  0  0  0  0  0  0  0
  -12.7644  -10.9970   -2.9253 C   0  0  0  0  0  0  0  0  0  0  0  0
  -12.3199   -9.7497   -2.1378 C   0  0  0  0  0  0  0  0  0  0  0  0
  -13.1747   -8.5241   -2.4884 C   0  0  0  0  0  0  0  0  0  0  0  0
  -13.1244   -8.2380   -3.9948 C   0  0  0  0  0  0  0  0  0  0  0  0
  -13.5731   -9.4686   -4.7930 C   0  0  0  0  0  0  0  0  0  0  0  0
  -12.7262  -10.6996   -4.4392 C   0  0  0  0  0  0  0  0  0  0  0  0
  -10.8132  -12.9865    0.9952 N   0  0  0  0  0  0  0  0  0  0  0  0
  -12.1946  -13.9822   -0.4393 O   0  0  0  0  0  0  0  0  0  0  0  0
  -11.0100  -13.9784    2.0516 C   0  0  0  0  0  0  0  0  0  0  0  0
  -10.6317  -13.3315    3.3971 C   0  0  2  0  0  0  0  0  0  0  0  0
  -10.1013  -14.4126    4.3633 C   0  0  0  0  0  0  0  0  0  0  0  0
   -9.5305  -13.6483    5.4895 N   0  0  0  0  0  0  0  0  0  0  0  0
  -10.5845  -12.8568    6.1727 C   0  0  0  0  0  0  0  0  0  0  0  0
  -11.2388  -11.8984    5.1415 C   0  0  0  0  0  0  0  0  0  0  0  0
  -11.7226  -12.6775    4.0404 O   0  0  0  0  0  0  0  0  0  0  0  0
   -8.4155  -14.3753    6.4665 S   0  0  0  0  0  0  0  0  0  0  0  0
   -7.1201  -15.0269    5.3790 C   0  0  0  0  0  0  0  0  0  0  0  0
   -7.8410  -13.3882    7.3091 O   0  0  0  0  0  0  0  0  0  0  0  0
   -9.0482  -15.4685    7.1170 O   0  0  0  0  0  0  0  0  0  0  0  0
   -7.1285  -16.3486    4.8978 C   0  0  0  0  0  0  0  0  0  0  0  0
   -6.0990  -16.7806    4.0536 C   0  0  0  0  0  0  0  0  0  0  0  0
   -5.0671  -15.9255    3.6941 C   0  0  0  0  0  0  0  0  0  0  0  0
   -5.0493  -14.6243    4.1751 C   0  0  0  0  0  0  0  0  0  0  0  0
   -6.0681  -14.1802    5.0103 C   0  0  0  0  0  0  0  0  0  0  0  0
   -8.1486  -17.3016    5.2598 C   0  0  0  0  0  0  0  0  0  0  0  0
   -8.9224  -18.0967    5.5386 N   0  0  0  0  0  0  0  0  0  0  0  0
   -4.9956  -10.5564   -3.6213 H   0  0  0  0  0  0  0  0  0  0  0  0
   -4.3853  -11.2694   -1.2782 H   0  0  0  0  0  0  0  0  0  0  0  0
   -6.5762  -11.4333    0.0762 H   0  0  0  0  0  0  0  0  0  0  0  0
   -9.2101  -12.7874   -1.5196 H   0  0  0  0  0  0  0  0  0  0  0  0
  -11.4276  -11.0087   -0.8040 H   0  0  0  0  0  0  0  0  0  0  0  0
  -12.3860  -13.0057   -2.4485 H   0  0  0  0  0  0  0  0  0  0  0  0
  -11.1428  -12.2937   -3.2322 H   0  0  0  0  0  0  0  0  0  0  0  0
  -13.7031  -11.2237   -2.6656 H   0  0  0  0  0  0  0  0  0  0  0  0
  -11.3643   -9.5517   -2.3562 H   0  0  0  0  0  0  0  0  0  0  0  0
  -12.4064   -9.9362   -1.1591 H   0  0  0  0  0  0  0  0  0  0  0  0
  -12.8269   -7.7288   -1.9918 H   0  0  0  0  0  0  0  0  0  0  0  0
  -14.1221   -8.6971   -2.2190 H   0  0  0  0  0  0  0  0  0  0  0  0
  -12.1876   -8.0021   -4.2534 H   0  0  0  0  0  0  0  0  0  0  0  0
  -13.7311   -7.4712   -4.2042 H   0  0  0  0  0  0  0  0  0  0  0  0
  -13.4771   -9.2765   -5.7697 H   0  0  0  0  0  0  0  0  0  0  0  0
  -14.5318   -9.6612   -4.5838 H   0  0  0  0  0  0  0  0  0  0  0  0
  -13.0817  -11.4920   -4.9350 H   0  0  0  0  0  0  0  0  0  0  0  0
  -11.7792  -10.5322   -4.7135 H   0  0  0  0  0  0  0  0  0  0  0  0
  -10.1552  -12.2495    1.1493 H   0  0  0  0  0  0  0  0  0  0  0  0
  -10.4271  -14.7731    1.8825 H   0  0  0  0  0  0  0  0  0  0  0  0
  -11.9677  -14.2658    2.0718 H   0  0  0  0  0  0  0  0  0  0  0  0
   -9.9065  -12.6618    3.2373 H   0  0  0  0  0  0  0  0  0  0  0  0
   -9.3982  -14.9689    3.9205 H   0  0  0  0  0  0  0  0  0  0  0  0
  -10.8451  -15.0029    4.6768 H   0  0  0  0  0  0  0  0  0  0  0  0
  -10.1771  -12.3245    6.9147 H   0  0  0  0  0  0  0  0  0  0  0  0
  -11.2782  -13.4727    6.5462 H   0  0  0  0  0  0  0  0  0  0  0  0
  -10.5609  -11.2392    4.8162 H   0  0  0  0  0  0  0  0  0  0  0  0
  -11.9995  -11.4106    5.5696 H   0  0  0  0  0  0  0  0  0  0  0  0
   -6.1073  -17.7179    3.7050 H   0  0  0  0  0  0  0  0  0  0  0  0
   -4.3379  -16.2463    3.0897 H   0  0  0  0  0  0  0  0  0  0  0  0
   -4.3048  -14.0068    3.9213 H   0  0  0  0  0  0  0  0  0  0  0  0
   -6.0492  -13.2410    5.3531 H   0  0  0  0  0  0  0  0  0  0  0  0
  1  2  2  0  0  0  0
  1  5  1  0  0  0  0
  1 38  1  0  0  0  0
  2  3  1  0  0  0  0
  2 39  1  0  0  0  0
  3  4  2  0  0  0  0
  3 40  1  0  0  0  0
  4  5  1  0  0  0  0
  4  6  1  0  0  0  0
  6  7  1  0  0  0  0
  6  8  2  0  0  0  0
  7  9  1  0  0  0  0
  7 41  1  0  0  0  0
  9 10  1  0  0  0  0
  9 11  1  0  0  0  0
  9 42  1  1  0  0  0
 10 18  1  0  0  0  0
 10 19  2  0  0  0  0
 11 12  1  0  0  0  0
 11 43  1  0  0  0  0
 11 44  1  0  0  0  0
 12 13  1  0  0  0  0
 12 17  1  0  0  0  0
 12 45  1  0  0  0  0
 13 14  1  0  0  0  0
 13 46  1  0  0  0  0
 13 47  1  0  0  0  0
 14 15  1  0  0  0  0
 14 48  1  0  0  0  0
 14 49  1  0  0  0  0
 15 16  1  0  0  0  0
 15 50  1  0  0  0  0
 15 51  1  0  0  0  0
 16 17  1  0  0  0  0
 16 52  1  0  0  0  0
 16 53  1  0  0  0  0
 17 54  1  0  0  0  0
 17 55  1  0  0  0  0
 18 20  1  0  0  0  0
 18 56  1  0  0  0  0
 20 21  1  0  0  0  0
 20 57  1  0  0  0  0
 20 58  1  0  0  0  0
 21 22  1  0  0  0  0
 21 26  1  0  0  0  0
 21 59  1  6  0  0  0
 22 23  1  0  0  0  0
 22 60  1  0  0  0  0
 22 61  1  0  0  0  0
 23 24  1  0  0  0  0
 23 27  1  0  0  0  0
 24 25  1  0  0  0  0
 24 62  1  0  0  0  0
 24 63  1  0  0  0  0
 25 26  1  0  0  0  0
 25 64  1  0  0  0  0
 25 65  1  0  0  0  0
 27 28  1  0  0  0  0
 27 29  2  0  0  0  0
 27 30  2  0  0  0  0
 28 31  2  0  0  0  0
 28 35  1  0  0  0  0
 31 32  1  0  0  0  0
 31 36  1  0  0  0  0
 32 33  2  0  0  0  0
 32 66  1  0  0  0  0
 33 34  1  0  0  0  0
 33 67  1  0  0  0  0
 34 35  2  0  0  0  0
 34 68  1  0  0  0  0
 35 69  1  0  0  0  0
 36 37  3  0  0  0  0
M  END
>  <BIOSOLVEIT.HYDE_ESTIMATED_AFFINITY_LOWER_BOUNDARY [nM]>
7581508484.932769

>  <BIOSOLVEIT.HYDE_ESTIMATED_AFFINITY_UPPER_BOUNDARY [nM]>
753267693403.770386

>  <BIOSOLVEIT.HYDE_LIGAND_EFFICIENCY range: ++, +, 0, -, -->
--

>  <BIOSOLVEIT.HYDE_LIGAND_LIPOPHILIC_EFFICIENCY range: ++, +, 0, -, -->
--

>  <BIOSOLVEIT.INTER_CLASH range: red, yellow, green>
green

>  <BIOSOLVEIT.INTRA_CLASH range: red, yellow, green>
yellow

>  <BIOSOLVEIT.LOGP>
3.07658

>  <BIOSOLVEIT.MOLECULAR WEIGHT>
528.626

>  <BIOSOLVEIT.MOLECULE_CHECKSUM>
MTAuNzIxNzsw

>  <BIOSOLVEIT.TORSION_QUALITY range: red, yellow, green, not rotatable>
red

>  <BIOSOLVEIT.TPSA>
141.74

$$$$
