Z412133170.****
 OpenBabel12172121453D
Hydescorer 1.1.2 b8048283
 47 49  0  0  0  0  0  0  0  0999 V2000
   -4.6841  -10.8673   -4.3838 C   0  0  0  0  0  0  0  0  0  0  0  0
   -5.3642  -10.1471   -5.2265 N   0  0  0  0  0  0  0  0  0  0  0  0
   -6.5598   -9.7041   -4.7081 N   0  0  0  0  0  0  0  0  0  0  0  0
   -6.7227  -10.1171   -3.4883 C   0  0  0  0  0  0  0  0  0  0  0  0
   -5.4497  -11.0698   -2.8700 S   0  0  0  0  0  0  0  0  0  0  0  0
   -3.3265  -11.5042   -4.6434 C   0  0  0  0  0  0  0  0  0  0  0  0
   -2.3227  -10.9770   -3.6073 C   0  0  0  0  0  0  0  0  0  0  0  0
   -3.4631  -13.0300   -4.5421 C   0  0  0  0  0  0  0  0  0  0  0  0
   -7.8819   -9.7700   -2.7857 N   0  0  0  0  0  0  0  0  0  0  0  0
   -9.1683  -10.0497   -3.1160 C   0  0  0  0  0  0  0  0  0  0  0  0
  -10.0654   -9.5735   -2.2260 N   0  0  0  0  0  0  0  0  0  0  0  0
   -9.5135  -10.6682   -4.1105 O   0  0  0  0  0  0  0  0  0  0  0  0
  -11.4914   -9.7721   -2.4062 C   0  0  0  0  0  0  0  0  0  0  0  0
  -11.7698  -11.0309   -1.6118 C   0  0  0  0  0  0  0  0  0  0  0  0
  -12.1662  -10.9502   -0.2759 C   0  0  0  0  0  0  0  0  0  0  0  0
  -12.4314  -12.1026    0.4552 C   0  0  0  0  0  0  0  0  0  0  0  0
  -12.2983  -13.3613   -0.1423 C   0  0  0  0  0  0  0  0  0  0  0  0
  -11.9175  -13.4437   -1.4880 C   0  0  0  0  0  0  0  0  0  0  0  0
  -11.6548  -12.2854   -2.2113 C   0  0  0  0  0  0  0  0  0  0  0  0
  -12.5629  -14.5350    0.6069 N   0  0  0  0  0  0  0  0  0  0  0  0
  -11.6349  -15.6651    0.6451 C   0  0  0  0  0  0  0  0  0  0  0  0
  -12.3601  -16.6263    1.5852 C   0  0  0  0  0  0  0  0  0  0  0  0
  -12.9315  -15.6668    2.6267 C   0  0  0  0  0  0  0  0  0  0  0  0
  -13.4670  -14.5205    1.7634 C   0  0  0  0  0  0  0  0  0  0  0  0
   -3.0152  -11.2592   -5.5616 H   0  0  0  0  0  0  0  0  0  0  0  0
   -1.4270  -11.3906   -3.7705 H   0  0  0  0  0  0  0  0  0  0  0  0
   -2.2506   -9.9829   -3.6887 H   0  0  0  0  0  0  0  0  0  0  0  0
   -2.6369  -11.2143   -2.6881 H   0  0  0  0  0  0  0  0  0  0  0  0
   -2.5745  -13.4562   -4.7116 H   0  0  0  0  0  0  0  0  0  0  0  0
   -3.7817  -13.2761   -3.6267 H   0  0  0  0  0  0  0  0  0  0  0  0
   -4.1222  -13.3515   -5.2220 H   0  0  0  0  0  0  0  0  0  0  0  0
   -7.7465   -9.2545   -1.9396 H   0  0  0  0  0  0  0  0  0  0  0  0
   -9.7395   -9.0725   -1.4243 H   0  0  0  0  0  0  0  0  0  0  0  0
  -11.7161   -9.9008   -3.3721 H   0  0  0  0  0  0  0  0  0  0  0  0
  -12.0097   -8.9976   -2.0437 H   0  0  0  0  0  0  0  0  0  0  0  0
  -12.2603  -10.0549    0.1595 H   0  0  0  0  0  0  0  0  0  0  0  0
  -12.7181  -12.0321    1.4106 H   0  0  0  0  0  0  0  0  0  0  0  0
  -11.8343  -14.3372   -1.9292 H   0  0  0  0  0  0  0  0  0  0  0  0
  -11.3809  -12.3523   -3.1707 H   0  0  0  0  0  0  0  0  0  0  0  0
  -10.7458  -15.3948    1.0144 H   0  0  0  0  0  0  0  0  0  0  0  0
  -11.5110  -16.0663   -0.2625 H   0  0  0  0  0  0  0  0  0  0  0  0
  -11.7258  -17.2790    1.9997 H   0  0  0  0  0  0  0  0  0  0  0  0
  -13.0862  -17.1230    1.1097 H   0  0  0  0  0  0  0  0  0  0  0  0
  -12.2197  -15.3463    3.2518 H   0  0  0  0  0  0  0  0  0  0  0  0
  -13.6659  -16.0979    3.1509 H   0  0  0  0  0  0  0  0  0  0  0  0
  -14.4120  -14.6909    1.4840 H   0  0  0  0  0  0  0  0  0  0  0  0
  -13.4154  -13.6484    2.2501 H   0  0  0  0  0  0  0  0  0  0  0  0
  1  2  2  0  0  0  0
  1  5  1  0  0  0  0
  1  6  1  0  0  0  0
  2  3  1  0  0  0  0
  3  4  2  0  0  0  0
  4  5  1  0  0  0  0
  4  9  1  0  0  0  0
  6  7  1  0  0  0  0
  6  8  1  0  0  0  0
  6 25  1  0  0  0  0
  7 26  1  0  0  0  0
  7 27  1  0  0  0  0
  7 28  1  0  0  0  0
  8 29  1  0  0  0  0
  8 30  1  0  0  0  0
  8 31  1  0  0  0  0
  9 10  1  0  0  0  0
  9 32  1  0  0  0  0
 10 11  1  0  0  0  0
 10 12  2  0  0  0  0
 11 13  1  0  0  0  0
 11 33  1  0  0  0  0
 13 14  1  0  0  0  0
 13 34  1  0  0  0  0
 13 35  1  0  0  0  0
 14 15  2  0  0  0  0
 14 19  1  0  0  0  0
 15 16  1  0  0  0  0
 15 36  1  0  0  0  0
 16 17  2  0  0  0  0
 16 37  1  0  0  0  0
 17 18  1  0  0  0  0
 17 20  1  0  0  0  0
 18 19  2  0  0  0  0
 18 38  1  0  0  0  0
 19 39  1  0  0  0  0
 20 21  1  0  0  0  0
 20 24  1  0  0  0  0
 21 22  1  0  0  0  0
 21 40  1  0  0  0  0
 21 41  1  0  0  0  0
 22 23  1  0  0  0  0
 22 42  1  0  0  0  0
 22 43  1  0  0  0  0
 23 24  1  0  0  0  0
 23 44  1  0  0  0  0
 23 45  1  0  0  0  0
 24 46  1  0  0  0  0
 24 47  1  0  0  0  0
M  END
>  <BIOSOLVEIT.HYDE_ESTIMATED_AFFINITY_LOWER_BOUNDARY [nM]>
474738092.545926

>  <BIOSOLVEIT.HYDE_ESTIMATED_AFFINITY_UPPER_BOUNDARY [nM]>
47168036368.180183

>  <BIOSOLVEIT.HYDE_LIGAND_EFFICIENCY range: ++, +, 0, -, -->
--

>  <BIOSOLVEIT.HYDE_LIGAND_LIPOPHILIC_EFFICIENCY range: ++, +, 0, -, -->
--

>  <BIOSOLVEIT.INTER_CLASH range: red, yellow, green>
green

>  <BIOSOLVEIT.INTRA_CLASH range: red, yellow, green>
green

>  <BIOSOLVEIT.LOGP>
3.5834

>  <BIOSOLVEIT.MOLECULAR WEIGHT>
345.468

>  <BIOSOLVEIT.MOLECULE_CHECKSUM>
My44NTMyOzA=

>  <BIOSOLVEIT.TORSION_QUALITY range: red, yellow, green, not rotatable>
green

>  <BIOSOLVEIT.TPSA>
70.15

$$$$
