G6.sdf
 OpenBabel12172121453D
Hydescorer 1.1.2 b8048283
 61 63  0  0  0  0  0  0  0  0999 V2000
   -7.1952  -10.6727   -1.5204 C   0  0  0  0  0  0  0  0  0  0  0  0
   -7.2426  -10.2373   -2.8431 C   0  0  0  0  0  0  0  0  0  0  0  0
   -6.1546  -10.4414   -3.6872 C   0  0  0  0  0  0  0  0  0  0  0  0
   -5.0119  -11.0817   -3.1978 C   0  0  0  0  0  0  0  0  0  0  0  0
   -4.9591  -11.5320   -1.8813 C   0  0  0  0  0  0  0  0  0  0  0  0
   -6.0515  -11.3194   -1.0429 C   0  0  0  0  0  0  0  0  0  0  0  0
   -5.9908  -11.8584    0.6024 Cl  0  0  0  0  0  0  0  0  0  0  0  0
   -3.9032  -11.2941   -4.0208 N   0  0  0  0  0  0  0  0  0  0  0  0
   -4.1197  -11.1749   -5.4621 C   0  0  0  0  0  0  0  0  0  0  0  0
   -3.0805  -12.0962   -6.0631 C   0  0  0  0  0  0  0  0  0  0  0  0
   -1.7180  -12.0018   -5.9575 C   0  0  0  0  0  0  0  0  0  0  0  0
   -1.0431  -13.0364   -6.6166 C   0  0  0  0  0  0  0  0  0  0  0  0
   -1.8884  -13.9385   -7.2288 C   0  0  0  0  0  0  0  0  0  0  0  0
   -3.5448  -13.4768   -6.9894 S   0  0  0  0  0  0  0  0  0  0  0  0
   -1.5522  -15.1421   -7.9688 C   0  0  0  0  0  0  0  0  0  0  0  0
   -0.2359  -15.4288   -8.1929 N   0  0  0  0  0  0  0  0  0  0  0  0
    0.1745  -16.6391   -8.9399 C   0  0  2  0  0  0  0  0  0  0  0  0
    0.4417  -17.7761   -7.9327 C   0  0  0  0  0  0  0  0  0  0  0  0
    1.4743  -16.2956   -9.7091 C   0  0  0  0  0  0  0  0  0  0  0  0
   -0.0618  -18.8932   -8.0271 O   0  0  0  0  0  0  0  0  0  0  0  0
    1.3294  -17.5140   -6.9675 N   0  0  0  0  0  0  0  0  0  0  0  0
    1.7184  -18.4562   -5.9214 C   0  0  0  0  0  0  0  0  0  0  0  0
    2.7997  -19.4041   -6.4448 C   0  0  0  0  0  0  0  0  0  0  0  0
    3.1567  -20.3225   -5.4228 O   0  0  0  0  0  0  0  0  0  0  0  0
    4.1595  -21.2372   -5.8398 C   0  0  0  0  0  0  0  0  0  0  0  0
    1.9554  -17.5309  -10.4984 C   0  0  0  0  0  0  0  0  0  0  0  0
    3.2469  -17.3218  -11.2933 C   0  0  0  0  0  0  0  0  0  0  0  0
    3.2331  -18.4246  -12.3569 C   0  0  0  0  0  0  0  0  0  0  0  0
    1.7722  -18.8731  -12.4827 C   0  0  0  0  0  0  0  0  0  0  0  0
    0.9726  -17.9111  -11.6052 C   0  0  0  0  0  0  0  0  0  0  0  0
   -2.3763  -15.9528   -8.3866 O   0  0  0  0  0  0  0  0  0  0  0  0
   -7.9766  -10.5231   -0.9147 H   0  0  0  0  0  0  0  0  0  0  0  0
   -8.0608   -9.7766   -3.1871 H   0  0  0  0  0  0  0  0  0  0  0  0
   -6.1900  -10.1320   -4.6375 H   0  0  0  0  0  0  0  0  0  0  0  0
   -4.1454  -12.0034   -1.5410 H   0  0  0  0  0  0  0  0  0  0  0  0
   -3.0047  -11.5170   -3.6426 H   0  0  0  0  0  0  0  0  0  0  0  0
   -3.9788  -10.2329   -5.7665 H   0  0  0  0  0  0  0  0  0  0  0  0
   -5.0427  -11.4703   -5.7090 H   0  0  0  0  0  0  0  0  0  0  0  0
   -1.2530  -11.2690   -5.4606 H   0  0  0  0  0  0  0  0  0  0  0  0
   -0.0463  -13.1139   -6.6411 H   0  0  0  0  0  0  0  0  0  0  0  0
    0.4661  -14.8075   -7.8447 H   0  0  0  0  0  0  0  0  0  0  0  0
   -0.5442  -16.9085   -9.5808 H   0  0  0  0  0  0  0  0  0  0  0  0
    2.1823  -16.0206   -9.0587 H   0  0  0  0  0  0  0  0  0  0  0  0
    1.2954  -15.5445  -10.3445 H   0  0  0  0  0  0  0  0  0  0  0  0
    1.7566  -16.6100   -6.9615 H   0  0  0  0  0  0  0  0  0  0  0  0
    0.9193  -18.9882   -5.6413 H   0  0  0  0  0  0  0  0  0  0  0  0
    2.0740  -17.9501   -5.1357 H   0  0  0  0  0  0  0  0  0  0  0  0
    3.6047  -18.8755   -6.7143 H   0  0  0  0  0  0  0  0  0  0  0  0
    2.4495  -19.9052   -7.2361 H   0  0  0  0  0  0  0  0  0  0  0  0
    4.3756  -21.8605   -5.0882 H   0  0  0  0  0  0  0  0  0  0  0  0
    3.8268  -21.7623   -6.6231 H   0  0  0  0  0  0  0  0  0  0  0  0
    4.9824  -20.7331   -6.1018 H   0  0  0  0  0  0  0  0  0  0  0  0
    2.0694  -18.3030   -9.8732 H   0  0  0  0  0  0  0  0  0  0  0  0
    4.0457  -17.4153  -10.6990 H   0  0  0  0  0  0  0  0  0  0  0  0
    3.2545  -16.4186  -11.7223 H   0  0  0  0  0  0  0  0  0  0  0  0
    3.8083  -19.1908  -12.0703 H   0  0  0  0  0  0  0  0  0  0  0  0
    3.5636  -18.0684  -13.2309 H   0  0  0  0  0  0  0  0  0  0  0  0
    1.6659  -19.8129  -12.1577 H   0  0  0  0  0  0  0  0  0  0  0  0
    1.4688  -18.8129  -13.4337 H   0  0  0  0  0  0  0  0  0  0  0  0
    0.6909  -17.1045  -12.1249 H   0  0  0  0  0  0  0  0  0  0  0  0
    0.1647  -18.3619  -11.2257 H   0  0  0  0  0  0  0  0  0  0  0  0
  1  2  2  0  0  0  0
  1  6  1  0  0  0  0
  1 32  1  0  0  0  0
  2  3  1  0  0  0  0
  2 33  1  0  0  0  0
  3  4  2  0  0  0  0
  3 34  1  0  0  0  0
  4  5  1  0  0  0  0
  4  8  1  0  0  0  0
  5  6  2  0  0  0  0
  5 35  1  0  0  0  0
  6  7  1  0  0  0  0
  8  9  1  0  0  0  0
  8 36  1  0  0  0  0
  9 10  1  0  0  0  0
  9 37  1  0  0  0  0
  9 38  1  0  0  0  0
 10 11  2  0  0  0  0
 10 14  1  0  0  0  0
 11 12  1  0  0  0  0
 11 39  1  0  0  0  0
 12 13  2  0  0  0  0
 12 40  1  0  0  0  0
 13 14  1  0  0  0  0
 13 15  1  0  0  0  0
 15 16  1  0  0  0  0
 15 31  2  0  0  0  0
 16 17  1  0  0  0  0
 16 41  1  0  0  0  0
 17 18  1  0  0  0  0
 17 19  1  0  0  0  0
 17 42  1  6  0  0  0
 18 20  2  0  0  0  0
 18 21  1  0  0  0  0
 19 26  1  0  0  0  0
 19 43  1  0  0  0  0
 19 44  1  0  0  0  0
 21 22  1  0  0  0  0
 21 45  1  0  0  0  0
 22 23  1  0  0  0  0
 22 46  1  0  0  0  0
 22 47  1  0  0  0  0
 23 24  1  0  0  0  0
 23 48  1  0  0  0  0
 23 49  1  0  0  0  0
 24 25  1  0  0  0  0
 25 50  1  0  0  0  0
 25 51  1  0  0  0  0
 25 52  1  0  0  0  0
 26 27  1  0  0  0  0
 26 30  1  0  0  0  0
 26 53  1  0  0  0  0
 27 28  1  0  0  0  0
 27 54  1  0  0  0  0
 27 55  1  0  0  0  0
 28 29  1  0  0  0  0
 28 56  1  0  0  0  0
 28 57  1  0  0  0  0
 29 30  1  0  0  0  0
 29 58  1  0  0  0  0
 29 59  1  0  0  0  0
 30 60  1  0  0  0  0
 30 61  1  0  0  0  0
M  END
>  <BIOSOLVEIT.HYDE_ESTIMATED_AFFINITY_LOWER_BOUNDARY [nM]>
185371.849480

>  <BIOSOLVEIT.HYDE_ESTIMATED_AFFINITY_UPPER_BOUNDARY [nM]>
18417789.250980

>  <BIOSOLVEIT.HYDE_LIGAND_EFFICIENCY range: ++, +, 0, -, -->
--

>  <BIOSOLVEIT.HYDE_LIGAND_LIPOPHILIC_EFFICIENCY range: ++, +, 0, -, -->
--

>  <BIOSOLVEIT.INTER_CLASH range: red, yellow, green>
green

>  <BIOSOLVEIT.INTRA_CLASH range: red, yellow, green>
green

>  <BIOSOLVEIT.LOGP>
4.4549

>  <BIOSOLVEIT.MOLECULAR WEIGHT>
464.026

>  <BIOSOLVEIT.MOLECULE_CHECKSUM>
LTE1LjYwMjswLjUwMzI5Mg==

>  <BIOSOLVEIT.TORSION_QUALITY range: red, yellow, green, not rotatable>
green

>  <BIOSOLVEIT.TPSA>
79.46

$$$$
