Z28052960.****
 OpenBabel12172121453D
Hydescorer 1.1.2 b8048283
 34 36  0  0  0  0  0  0  0  0999 V2000
   -4.0020  -15.2861  -10.4508 C   0  0  0  0  0  0  0  0  0  0  0  0
   -4.3125  -15.5960   -9.1270 C   0  0  0  0  0  0  0  0  0  0  0  0
   -5.6496  -15.8430   -8.8115 C   0  0  0  0  0  0  0  0  0  0  0  0
   -6.6339  -15.7648   -9.7982 C   0  0  0  0  0  0  0  0  0  0  0  0
   -6.2956  -15.4426  -11.1121 C   0  0  0  0  0  0  0  0  0  0  0  0
   -4.9672  -15.2015  -11.4457 C   0  0  0  0  0  0  0  0  0  0  0  0
   -3.2397  -15.6852   -8.0502 C   0  0  0  0  0  0  0  0  0  0  0  0
   -3.1185  -14.3068   -7.4377 C   0  0  0  0  0  0  0  0  0  0  0  0
   -3.3171  -14.2057   -6.0828 N   0  0  0  0  0  0  0  0  0  0  0  0
   -2.8862  -13.3205   -8.1069 O   0  0  0  0  0  0  0  0  0  0  0  0
   -3.2552  -13.0316   -5.2998 C   0  0  0  0  0  0  0  0  0  0  0  0
   -4.4088  -12.3524   -4.9026 C   0  0  0  0  0  0  0  0  0  0  0  0
   -4.2624  -11.2014   -4.1323 C   0  0  0  0  0  0  0  0  0  0  0  0
   -3.0044  -10.7086   -3.7703 C   0  0  0  0  0  0  0  0  0  0  0  0
   -1.8670  -11.3949   -4.1884 C   0  0  0  0  0  0  0  0  0  0  0  0
   -1.9887  -12.5551   -4.9523 C   0  0  0  0  0  0  0  0  0  0  0  0
   -5.4397  -10.5062   -3.6961 N   0  0  0  0  0  0  0  0  0  0  0  0
   -6.1743   -9.7183   -4.4643 N   0  0  0  0  0  0  0  0  0  0  0  0
   -7.1262   -9.2786   -3.6914 N   0  0  0  0  0  0  0  0  0  0  0  0
   -6.9957   -9.7905   -2.4350 N   0  0  0  0  0  0  0  0  0  0  0  0
   -5.9562  -10.5373   -2.4774 C   0  0  0  0  0  0  0  0  0  0  0  0
   -2.7056  -15.0672  -10.8012 F   0  0  0  0  0  0  0  0  0  0  0  0
   -5.9039  -16.0773   -7.8732 H   0  0  0  0  0  0  0  0  0  0  0  0
   -7.5891  -15.9413   -9.5609 H   0  0  0  0  0  0  0  0  0  0  0  0
   -7.0066  -15.3849  -11.8129 H   0  0  0  0  0  0  0  0  0  0  0  0
   -4.7117  -14.9714  -12.3847 H   0  0  0  0  0  0  0  0  0  0  0  0
   -2.3676  -15.9598   -8.4552 H   0  0  0  0  0  0  0  0  0  0  0  0
   -3.5071  -16.3496   -7.3523 H   0  0  0  0  0  0  0  0  0  0  0  0
   -3.5284  -15.0545   -5.5982 H   0  0  0  0  0  0  0  0  0  0  0  0
   -5.3154  -12.6834   -5.1641 H   0  0  0  0  0  0  0  0  0  0  0  0
   -2.9230   -9.8773   -3.2205 H   0  0  0  0  0  0  0  0  0  0  0  0
   -0.9601  -11.0547   -3.9400 H   0  0  0  0  0  0  0  0  0  0  0  0
   -1.1701  -13.0456   -5.2511 H   0  0  0  0  0  0  0  0  0  0  0  0
   -5.5911  -11.0627   -1.7088 H   0  0  0  0  0  0  0  0  0  0  0  0
  1  2  2  0  0  0  0
  1  6  1  0  0  0  0
  1 22  1  0  0  0  0
  2  3  1  0  0  0  0
  2  7  1  0  0  0  0
  3  4  2  0  0  0  0
  3 23  1  0  0  0  0
  4  5  1  0  0  0  0
  4 24  1  0  0  0  0
  5  6  2  0  0  0  0
  5 25  1  0  0  0  0
  6 26  1  0  0  0  0
  7  8  1  0  0  0  0
  7 27  1  0  0  0  0
  7 28  1  0  0  0  0
  8  9  1  0  0  0  0
  8 10  2  0  0  0  0
  9 11  1  0  0  0  0
  9 29  1  0  0  0  0
 11 12  2  0  0  0  0
 11 16  1  0  0  0  0
 12 13  1  0  0  0  0
 12 30  1  0  0  0  0
 13 14  2  0  0  0  0
 13 17  1  0  0  0  0
 14 15  1  0  0  0  0
 14 31  1  0  0  0  0
 15 16  2  0  0  0  0
 15 32  1  0  0  0  0
 16 33  1  0  0  0  0
 17 18  1  0  0  0  0
 17 21  1  0  0  0  0
 18 19  2  0  0  0  0
 19 20  1  0  0  0  0
 20 21  2  0  0  0  0
 21 34  1  0  0  0  0
M  END
>  <BIOSOLVEIT.HYDE_ESTIMATED_AFFINITY_LOWER_BOUNDARY [nM]>
4171559770.350364

>  <BIOSOLVEIT.HYDE_ESTIMATED_AFFINITY_UPPER_BOUNDARY [nM]>
414469127397.625610

>  <BIOSOLVEIT.HYDE_LIGAND_EFFICIENCY range: ++, +, 0, -, -->
--

>  <BIOSOLVEIT.HYDE_LIGAND_LIPOPHILIC_EFFICIENCY range: ++, +, 0, -, -->
--

>  <BIOSOLVEIT.INTER_CLASH range: red, yellow, green>
green

>  <BIOSOLVEIT.INTRA_CLASH range: red, yellow, green>
green

>  <BIOSOLVEIT.LOGP>
1.9826

>  <BIOSOLVEIT.MOLECULAR WEIGHT>
297.292

>  <BIOSOLVEIT.MOLECULE_CHECKSUM>
OS4yNDA2Nzsw

>  <BIOSOLVEIT.TORSION_QUALITY range: red, yellow, green, not rotatable>
red

>  <BIOSOLVEIT.TPSA>
72.7

$$$$
