Z14487066.****
 OpenBabel12172121453D
Hydescorer 1.1.2 b8048283
 44 46  0  0  0  0  0  0  0  0999 V2000
   -7.4616  -13.0275    0.2110 C   0  0  0  0  0  0  0  0  0  0  0  0
   -6.6139  -11.9214   -0.1248 C   0  0  0  0  0  0  0  0  0  0  0  0
   -5.5779  -11.6253    0.5872 N   0  0  0  0  0  0  0  0  0  0  0  0
   -5.2959  -12.4078    1.6996 C   0  0  0  0  0  0  0  0  0  0  0  0
   -6.0822  -13.4662    2.0531 N   0  0  0  0  0  0  0  0  0  0  0  0
   -7.2070  -13.8132    1.3043 C   0  0  0  0  0  0  0  0  0  0  0  0
   -6.9257  -11.0756   -1.3357 C   0  0  0  0  0  0  0  0  0  0  0  0
   -8.0233  -15.0086    1.7665 C   0  0  0  0  0  0  0  0  0  0  0  0
   -4.3261  -12.3081    2.5551 N   0  0  0  0  0  0  0  0  0  0  0  0
   -4.5652  -13.3214    3.4073 C   0  0  0  0  0  0  0  0  0  0  0  0
   -5.6157  -14.0565    3.1600 N   0  0  0  0  0  0  0  0  0  0  0  0
   -3.5365  -13.6294    4.7828 S   0  0  0  0  0  0  0  0  0  0  0  0
   -2.2825  -12.3032    4.5976 C   0  0  0  0  0  0  0  0  0  0  0  0
   -1.0306  -12.8294    5.2610 C   0  0  0  0  0  0  0  0  0  0  0  0
   -0.3473  -13.8030    4.5797 N   0  0  0  0  0  0  0  0  0  0  0  0
   -0.6258  -12.3877    6.3117 O   0  0  0  0  0  0  0  0  0  0  0  0
    0.7987  -14.4169    4.9859 C   0  0  0  0  0  0  0  0  0  0  0  0
    1.2332  -15.3371    4.0951 N   0  0  0  0  0  0  0  0  0  0  0  0
    1.3579  -14.2083    6.0489 O   0  0  0  0  0  0  0  0  0  0  0  0
    2.4433  -16.1064    4.3400 C   0  0  0  0  0  0  0  0  0  0  0  0
    2.1114  -17.1907    5.3625 C   0  0  0  0  0  0  0  0  0  0  0  0
    1.4006  -18.3094    4.5868 C   0  0  0  0  0  0  0  0  0  0  0  0
    1.7813  -18.1114    3.1135 C   0  0  0  0  0  0  0  0  0  0  0  0
    2.7516  -16.9237    3.0884 C   0  0  0  0  0  0  0  0  0  0  0  0
   -8.2543  -13.2296   -0.3640 H   0  0  0  0  0  0  0  0  0  0  0  0
   -6.2397  -10.3533   -1.4233 H   0  0  0  0  0  0  0  0  0  0  0  0
   -6.9127  -11.6488   -2.1550 H   0  0  0  0  0  0  0  0  0  0  0  0
   -7.8311  -10.6643   -1.2309 H   0  0  0  0  0  0  0  0  0  0  0  0
   -7.6106  -15.3953    2.5912 H   0  0  0  0  0  0  0  0  0  0  0  0
   -8.9583  -14.7163    1.9672 H   0  0  0  0  0  0  0  0  0  0  0  0
   -8.0381  -15.7011    1.0452 H   0  0  0  0  0  0  0  0  0  0  0  0
   -2.5910  -11.4660    5.0491 H   0  0  0  0  0  0  0  0  0  0  0  0
   -2.1124  -12.1167    3.6300 H   0  0  0  0  0  0  0  0  0  0  0  0
   -0.7266  -14.0901    3.7002 H   0  0  0  0  0  0  0  0  0  0  0  0
    0.7141  -15.4913    3.2544 H   0  0  0  0  0  0  0  0  0  0  0  0
    3.2122  -15.5332    4.6237 H   0  0  0  0  0  0  0  0  0  0  0  0
    1.5096  -16.8250    6.0725 H   0  0  0  0  0  0  0  0  0  0  0  0
    2.9495  -17.5390    5.7827 H   0  0  0  0  0  0  0  0  0  0  0  0
    0.4099  -18.2369    4.7023 H   0  0  0  0  0  0  0  0  0  0  0  0
    1.7089  -19.2049    4.9078 H   0  0  0  0  0  0  0  0  0  0  0  0
    0.9682  -17.9083    2.5679 H   0  0  0  0  0  0  0  0  0  0  0  0
    2.2264  -18.9322    2.7555 H   0  0  0  0  0  0  0  0  0  0  0  0
    3.6977  -17.2469    3.1081 H   0  0  0  0  0  0  0  0  0  0  0  0
    2.6049  -16.3717    2.2675 H   0  0  0  0  0  0  0  0  0  0  0  0
  1  2  1  0  0  0  0
  1  6  2  0  0  0  0
  1 25  1  0  0  0  0
  2  3  2  0  0  0  0
  2  7  1  0  0  0  0
  3  4  1  0  0  0  0
  4  5  1  0  0  0  0
  4  9  2  0  0  0  0
  5  6  1  0  0  0  0
  5 11  1  0  0  0  0
  6  8  1  0  0  0  0
  7 26  1  0  0  0  0
  7 27  1  0  0  0  0
  7 28  1  0  0  0  0
  8 29  1  0  0  0  0
  8 30  1  0  0  0  0
  8 31  1  0  0  0  0
  9 10  1  0  0  0  0
 10 11  2  0  0  0  0
 10 12  1  0  0  0  0
 12 13  1  0  0  0  0
 13 14  1  0  0  0  0
 13 32  1  0  0  0  0
 13 33  1  0  0  0  0
 14 15  1  0  0  0  0
 14 16  2  0  0  0  0
 15 17  1  0  0  0  0
 15 34  1  0  0  0  0
 17 18  1  0  0  0  0
 17 19  2  0  0  0  0
 18 20  1  0  0  0  0
 18 35  1  0  0  0  0
 20 21  1  0  0  0  0
 20 24  1  0  0  0  0
 20 36  1  0  0  0  0
 21 22  1  0  0  0  0
 21 37  1  0  0  0  0
 21 38  1  0  0  0  0
 22 23  1  0  0  0  0
 22 39  1  0  0  0  0
 22 40  1  0  0  0  0
 23 24  1  0  0  0  0
 23 41  1  0  0  0  0
 23 42  1  0  0  0  0
 24 43  1  0  0  0  0
 24 44  1  0  0  0  0
M  END
>  <BIOSOLVEIT.HYDE_ESTIMATED_AFFINITY_LOWER_BOUNDARY [nM]>
186676209614554.593750

>  <BIOSOLVEIT.HYDE_ESTIMATED_AFFINITY_UPPER_BOUNDARY [nM]>
18547385142306704.000000

>  <BIOSOLVEIT.HYDE_LIGAND_EFFICIENCY range: ++, +, 0, -, -->
--

>  <BIOSOLVEIT.HYDE_LIGAND_LIPOPHILIC_EFFICIENCY range: ++, +, 0, -, -->
--

>  <BIOSOLVEIT.INTER_CLASH range: red, yellow, green>
green

>  <BIOSOLVEIT.INTRA_CLASH range: red, yellow, green>
yellow

>  <BIOSOLVEIT.LOGP>
1.60164

>  <BIOSOLVEIT.MOLECULAR WEIGHT>
348.428

>  <BIOSOLVEIT.MOLECULE_CHECKSUM>
MzUuNzg3NDsw

>  <BIOSOLVEIT.TORSION_QUALITY range: red, yellow, green, not rotatable>
green

>  <BIOSOLVEIT.TPSA>
101.8

$$$$
