Z854669466.****
 OpenBabel12172121453D
Hydescorer 1.1.2 b8048283
 39 41  0  0  0  0  0  0  0  0999 V2000
    0.2796  -13.6762    3.6410 C   0  0  0  0  0  0  0  0  0  0  0  0
   -0.8660  -12.8897    3.7378 C   0  0  0  0  0  0  0  0  0  0  0  0
   -2.1063  -13.3870    3.3397 C   0  0  0  0  0  0  0  0  0  0  0  0
   -2.1771  -14.6981    2.8404 C   0  0  0  0  0  0  0  0  0  0  0  0
   -1.0338  -15.4917    2.7354 C   0  0  0  0  0  0  0  0  0  0  0  0
    0.1935  -14.9760    3.1406 C   0  0  0  0  0  0  0  0  0  0  0  0
    1.6250  -15.9440    3.0152 Cl  0  0  0  0  0  0  0  0  0  0  0  0
   -3.3400  -12.5087    3.4605 C   0  0  0  0  0  0  0  0  0  0  0  0
   -3.4364  -15.1843    2.4059 N   0  0  0  0  0  0  0  0  0  0  0  0
   -4.0374  -16.3660    2.7581 C   0  0  0  0  0  0  0  0  0  0  0  0
   -5.3908  -16.6495    2.1502 C   0  0  0  0  0  0  0  0  0  0  0  0
   -3.5083  -17.1272    3.5366 O   0  0  0  0  0  0  0  0  0  0  0  0
   -6.4160  -15.6900    2.8003 C   0  0  0  0  0  0  0  0  0  0  0  0
   -7.5405  -15.3904    1.7816 C   0  0  0  0  0  0  0  0  0  0  0  0
   -7.0650  -16.4692    3.9650 C   0  0  0  0  0  0  0  0  0  0  0  0
   -6.2336  -16.6152    5.2067 C   0  0  0  0  0  0  0  0  0  0  0  0
   -7.4143  -15.6724    5.1881 C   0  0  0  0  0  0  0  0  0  0  0  0
   -8.6434  -14.4878    2.2557 C   0  0  0  0  0  0  0  0  0  0  0  0
   -7.6176  -13.9806    1.2687 C   0  0  0  0  0  0  0  0  0  0  0  0
    1.1638  -13.3093    3.9300 H   0  0  0  0  0  0  0  0  0  0  0  0
   -0.7982  -11.9586    4.0965 H   0  0  0  0  0  0  0  0  0  0  0  0
   -1.0960  -16.4215    2.3727 H   0  0  0  0  0  0  0  0  0  0  0  0
   -4.1406  -13.0119    3.1350 H   0  0  0  0  0  0  0  0  0  0  0  0
   -3.4741  -12.2521    4.4177 H   0  0  0  0  0  0  0  0  0  0  0  0
   -3.2175  -11.6841    2.9084 H   0  0  0  0  0  0  0  0  0  0  0  0
   -3.9430  -14.6002    1.7717 H   0  0  0  0  0  0  0  0  0  0  0  0
   -5.6519  -17.5979    2.3300 H   0  0  0  0  0  0  0  0  0  0  0  0
   -5.3589  -16.4940    1.1629 H   0  0  0  0  0  0  0  0  0  0  0  0
   -5.9788  -14.8496    3.1208 H   0  0  0  0  0  0  0  0  0  0  0  0
   -7.7895  -16.1221    1.1470 H   0  0  0  0  0  0  0  0  0  0  0  0
   -7.6689  -17.2299    3.7264 H   0  0  0  0  0  0  0  0  0  0  0  0
   -5.3026  -16.2511    5.2314 H   0  0  0  0  0  0  0  0  0  0  0  0
   -6.2756  -17.4596    5.7408 H   0  0  0  0  0  0  0  0  0  0  0  0
   -8.2385  -15.8921    5.7100 H   0  0  0  0  0  0  0  0  0  0  0  0
   -7.2654  -14.6836    5.2006 H   0  0  0  0  0  0  0  0  0  0  0  0
   -8.6431  -14.1488    3.1965 H   0  0  0  0  0  0  0  0  0  0  0  0
   -9.5848  -14.6501    1.9602 H   0  0  0  0  0  0  0  0  0  0  0  0
   -7.8796  -13.8070    0.3194 H   0  0  0  0  0  0  0  0  0  0  0  0
   -6.9378  -13.3056    1.5557 H   0  0  0  0  0  0  0  0  0  0  0  0
  1  2  2  0  0  0  0
  1  6  1  0  0  0  0
  1 20  1  0  0  0  0
  2  3  1  0  0  0  0
  2 21  1  0  0  0  0
  3  4  2  0  0  0  0
  3  8  1  0  0  0  0
  4  5  1  0  0  0  0
  4  9  1  0  0  0  0
  5  6  2  0  0  0  0
  5 22  1  0  0  0  0
  6  7  1  0  0  0  0
  8 23  1  0  0  0  0
  8 24  1  0  0  0  0
  8 25  1  0  0  0  0
  9 10  1  0  0  0  0
  9 26  1  0  0  0  0
 10 11  1  0  0  0  0
 10 12  2  0  0  0  0
 11 13  1  0  0  0  0
 11 27  1  0  0  0  0
 11 28  1  0  0  0  0
 13 14  1  0  0  0  0
 13 15  1  0  0  0  0
 13 29  1  0  0  0  0
 14 18  1  0  0  0  0
 14 19  1  0  0  0  0
 14 30  1  0  0  0  0
 15 16  1  0  0  0  0
 15 17  1  0  0  0  0
 15 31  1  0  0  0  0
 16 17  1  0  0  0  0
 16 32  1  0  0  0  0
 16 33  1  0  0  0  0
 17 34  1  0  0  0  0
 17 35  1  0  0  0  0
 18 19  1  0  0  0  0
 18 36  1  0  0  0  0
 18 37  1  0  0  0  0
 19 38  1  0  0  0  0
 19 39  1  0  0  0  0
M  END
>  <BIOSOLVEIT.HYDE_ESTIMATED_AFFINITY_LOWER_BOUNDARY [nM]>
131403340752.016388

>  <BIOSOLVEIT.HYDE_ESTIMATED_AFFINITY_UPPER_BOUNDARY [nM]>
13055698821749.566406

>  <BIOSOLVEIT.HYDE_LIGAND_EFFICIENCY range: ++, +, 0, -, -->
--

>  <BIOSOLVEIT.HYDE_LIGAND_LIPOPHILIC_EFFICIENCY range: ++, +, 0, -, -->
--

>  <BIOSOLVEIT.INTER_CLASH range: red, yellow, green>
green

>  <BIOSOLVEIT.INTRA_CLASH range: red, yellow, green>
green

>  <BIOSOLVEIT.LOGP>
4.41322

>  <BIOSOLVEIT.MOLECULAR WEIGHT>
277.793

>  <BIOSOLVEIT.MOLECULE_CHECKSUM>
MTcuNzkzOzA=

>  <BIOSOLVEIT.TORSION_QUALITY range: red, yellow, green, not rotatable>
green

>  <BIOSOLVEIT.TPSA>
29.1

$$$$
