PV-001799431004.****
 OpenBabel12172121453D
Hydescorer 1.1.2 b8048283
 61 64  0  0  0  0  0  0  0  0999 V2000
   -8.9330  -15.3716    6.3584 N   0  0  0  0  0  0  0  0  0  0  0  0
  -10.0039  -15.5413    7.3525 C   0  0  1  0  0  0  0  0  0  0  0  0
  -11.3750  -15.7986    6.6715 C   0  0  0  0  0  0  0  0  0  0  0  0
  -11.7335  -17.1737    7.0968 N   0  3  1  0  0  0  0  0  0  0  0  0
  -11.1195  -17.3501    8.4097 C   0  0  0  0  0  0  0  0  0  0  0  0
   -9.7144  -16.8253    8.1289 C   0  0  0  0  0  0  0  0  0  0  0  0
  -13.2024  -17.3195    7.2268 C   0  0  0  0  0  0  0  0  0  0  0  0
  -13.8137  -16.7568    5.9250 C   0  0  0  0  0  0  0  0  0  0  0  0
  -13.8450  -17.7950    4.7926 C   0  0  0  0  0  0  0  0  0  0  0  0
  -14.9626  -17.3101    3.8652 C   0  0  0  0  0  0  0  0  0  0  0  0
  -15.8590  -16.4022    4.7146 C   0  0  0  0  0  0  0  0  0  0  0  0
  -15.3073  -16.4967    6.1364 C   0  0  0  0  0  0  0  0  0  0  0  0
   -8.1266  -14.2768    6.2211 C   0  0  0  0  0  0  0  0  0  0  0  0
   -8.3018  -13.4107    7.0548 O   0  0  0  0  0  0  0  0  0  0  0  0
   -7.0956  -14.2339    5.1878 C   0  0  0  0  0  0  0  0  0  0  0  0
   -5.8318  -14.8040    5.4141 C   0  0  0  0  0  0  0  0  0  0  0  0
   -4.7796  -14.5359    4.5506 C   0  0  0  0  0  0  0  0  0  0  0  0
   -5.0044  -13.7171    3.4456 C   0  0  0  0  0  0  0  0  0  0  0  0
   -6.2858  -13.2821    3.1117 C   0  0  0  0  0  0  0  0  0  0  0  0
   -7.3315  -13.5432    3.9891 C   0  0  0  0  0  0  0  0  0  0  0  0
   -3.9225  -13.2229    2.7648 O   0  0  0  0  0  0  0  0  0  0  0  0
   -2.7466  -13.5535    3.3922 C   0  0  0  0  0  0  0  0  0  0  0  0
   -2.0100  -14.6362    2.9131 C   0  0  0  0  0  0  0  0  0  0  0  0
   -0.7211  -14.8365    3.3801 C   0  0  0  0  0  0  0  0  0  0  0  0
   -0.1569  -13.9665    4.3279 C   0  0  0  0  0  0  0  0  0  0  0  0
   -0.9627  -12.9528    4.8826 C   0  0  0  0  0  0  0  0  0  0  0  0
   -2.2564  -12.7434    4.4130 C   0  0  0  0  0  0  0  0  0  0  0  0
    1.2540  -14.1055    4.6665 C   0  0  0  0  0  0  0  0  0  0  0  0
    2.2957  -14.4809    3.6397 C   0  0  0  0  0  0  0  0  0  0  0  0
    1.6136  -13.9791    5.8209 O   0  0  0  0  0  0  0  0  0  0  0  0
   -8.7807  -16.1287    5.7231 H   0  0  0  0  0  0  0  0  0  0  0  0
  -10.0510  -14.7537    7.9668 H   0  0  0  0  0  0  0  0  0  0  0  0
  -11.2935  -15.7440    5.6763 H   0  0  0  0  0  0  0  0  0  0  0  0
  -12.0578  -15.1394    6.9866 H   0  0  0  0  0  0  0  0  0  0  0  0
  -11.1069  -18.3111    8.6857 H   0  0  0  0  0  0  0  0  0  0  0  0
  -11.5833  -16.8080    9.1104 H   0  0  0  0  0  0  0  0  0  0  0  0
   -9.2219  -16.6333    8.9778 H   0  0  0  0  0  0  0  0  0  0  0  0
   -9.1882  -17.4726    7.5774 H   0  0  0  0  0  0  0  0  0  0  0  0
  -13.5328  -16.8018    8.0159 H   0  0  0  0  0  0  0  0  0  0  0  0
  -13.4461  -18.2834    7.3348 H   0  0  0  0  0  0  0  0  0  0  0  0
  -13.3411  -15.9242    5.6365 H   0  0  0  0  0  0  0  0  0  0  0  0
  -14.0526  -18.7048    5.1519 H   0  0  0  0  0  0  0  0  0  0  0  0
  -12.9695  -17.8190    4.3099 H   0  0  0  0  0  0  0  0  0  0  0  0
  -15.4866  -18.0877    3.5178 H   0  0  0  0  0  0  0  0  0  0  0  0
  -14.5781  -16.7975    3.0975 H   0  0  0  0  0  0  0  0  0  0  0  0
  -16.8064  -16.7209    4.6856 H   0  0  0  0  0  0  0  0  0  0  0  0
  -15.8142  -15.4594    4.3844 H   0  0  0  0  0  0  0  0  0  0  0  0
  -15.4541  -15.6419    6.6340 H   0  0  0  0  0  0  0  0  0  0  0  0
  -15.7341  -17.2507    6.6357 H   0  0  0  0  0  0  0  0  0  0  0  0
   -5.6902  -15.4052    6.2006 H   0  0  0  0  0  0  0  0  0  0  0  0
   -3.8735  -14.9243    4.7186 H   0  0  0  0  0  0  0  0  0  0  0  0
   -6.4498  -12.7910    2.2562 H   0  0  0  0  0  0  0  0  0  0  0  0
   -8.2569  -13.2374    3.7650 H   0  0  0  0  0  0  0  0  0  0  0  0
   -2.4072  -15.2605    2.2405 H   0  0  0  0  0  0  0  0  0  0  0  0
   -0.1862  -15.6093    3.0385 H   0  0  0  0  0  0  0  0  0  0  0  0
   -0.6030  -12.3796    5.6187 H   0  0  0  0  0  0  0  0  0  0  0  0
   -2.8262  -12.0205    4.8037 H   0  0  0  0  0  0  0  0  0  0  0  0
    3.1943  -14.5223    4.0762 H   0  0  0  0  0  0  0  0  0  0  0  0
    2.0728  -15.3745    3.2501 H   0  0  0  0  0  0  0  0  0  0  0  0
    2.3096  -13.7945    2.9126 H   0  0  0  0  0  0  0  0  0  0  0  0
  -11.3721  -17.8448    6.4493 H   0  0  0  0  0  0  0  0  0  0  0  0
  1  2  1  0  0  0  0
  1 13  1  0  0  0  0
  1 31  1  0  0  0  0
  2  3  1  0  0  0  0
  2  6  1  0  0  0  0
  2 32  1  1  0  0  0
  3  4  1  0  0  0  0
  3 33  1  0  0  0  0
  3 34  1  0  0  0  0
  4  5  1  0  0  0  0
  4  7  1  0  0  0  0
  4 61  1  6  0  0  0
  5  6  1  0  0  0  0
  5 35  1  0  0  0  0
  5 36  1  0  0  0  0
  6 37  1  0  0  0  0
  6 38  1  0  0  0  0
  7  8  1  0  0  0  0
  7 39  1  0  0  0  0
  7 40  1  0  0  0  0
  8  9  1  0  0  0  0
  8 12  1  0  0  0  0
  8 41  1  0  0  0  0
  9 10  1  0  0  0  0
  9 42  1  0  0  0  0
  9 43  1  0  0  0  0
 10 11  1  0  0  0  0
 10 44  1  0  0  0  0
 10 45  1  0  0  0  0
 11 12  1  0  0  0  0
 11 46  1  0  0  0  0
 11 47  1  0  0  0  0
 12 48  1  0  0  0  0
 12 49  1  0  0  0  0
 13 14  2  0  0  0  0
 13 15  1  0  0  0  0
 15 16  2  0  0  0  0
 15 20  1  0  0  0  0
 16 17  1  0  0  0  0
 16 50  1  0  0  0  0
 17 18  2  0  0  0  0
 17 51  1  0  0  0  0
 18 19  1  0  0  0  0
 18 21  1  0  0  0  0
 19 20  2  0  0  0  0
 19 52  1  0  0  0  0
 20 53  1  0  0  0  0
 21 22  1  0  0  0  0
 22 23  2  0  0  0  0
 22 27  1  0  0  0  0
 23 24  1  0  0  0  0
 23 54  1  0  0  0  0
 24 25  2  0  0  0  0
 24 55  1  0  0  0  0
 25 26  1  0  0  0  0
 25 28  1  0  0  0  0
 26 27  2  0  0  0  0
 26 56  1  0  0  0  0
 27 57  1  0  0  0  0
 28 29  1  0  0  0  0
 28 30  2  0  0  0  0
 29 58  1  0  0  0  0
 29 59  1  0  0  0  0
 29 60  1  0  0  0  0
M  CHG  1   4   1
M  END
>  <BIOSOLVEIT.HYDE_ESTIMATED_AFFINITY_LOWER_BOUNDARY [nM]>
104832824.058723

>  <BIOSOLVEIT.HYDE_ESTIMATED_AFFINITY_UPPER_BOUNDARY [nM]>
10415760890.943344

>  <BIOSOLVEIT.HYDE_LIGAND_EFFICIENCY range: ++, +, 0, -, -->
--

>  <BIOSOLVEIT.HYDE_LIGAND_LIPOPHILIC_EFFICIENCY range: ++, +, 0, -, -->
--

>  <BIOSOLVEIT.INTER_CLASH range: red, yellow, green>
green

>  <BIOSOLVEIT.INTRA_CLASH range: red, yellow, green>
green

>  <BIOSOLVEIT.LOGP>
3.2587

>  <BIOSOLVEIT.MOLECULAR WEIGHT>
407.531

>  <BIOSOLVEIT.MOLECULE_CHECKSUM>
MC4xMDg5OTsw

>  <BIOSOLVEIT.TORSION_QUALITY range: red, yellow, green, not rotatable>
yellow

>  <BIOSOLVEIT.TPSA>
59.84

$$$$
