G1.sdf
 OpenBabel12172121453D
Hydescorer 1.1.2 b8048283
 69 72  0  0  0  0  0  0  0  0999 V2000
   -6.0864  -10.5874   -3.1384 C   0  0  0  0  0  0  0  0  0  0  0  0
   -5.5873  -10.5941   -1.8802 C   0  0  0  0  0  0  0  0  0  0  0  0
   -6.6249  -10.9741   -1.0286 C   0  0  0  0  0  0  0  0  0  0  0  0
   -7.7304  -11.1861   -1.8012 C   0  0  0  0  0  0  0  0  0  0  0  0
   -7.3874  -10.9446   -3.1111 O   0  0  0  0  0  0  0  0  0  0  0  0
   -9.0836  -11.5908   -1.4343 C   0  0  0  0  0  0  0  0  0  0  0  0
   -9.2558  -12.7164   -0.6793 N   0  0  0  0  0  0  0  0  0  0  0  0
  -10.1020  -10.9668   -1.7325 O   0  0  0  0  0  0  0  0  0  0  0  0
  -10.6063  -13.1809   -0.2732 C   0  0  2  0  0  0  0  0  0  0  0  0
  -10.4372  -14.1967    0.8737 C   0  0  0  0  0  0  0  0  0  0  0  0
  -11.2490  -13.8730   -1.5026 C   0  0  0  0  0  0  0  0  0  0  0  0
  -12.6897  -14.3409   -1.1875 C   0  0  0  0  0  0  0  0  0  0  0  0
  -13.5926  -13.0944   -1.1185 C   0  0  0  0  0  0  0  0  0  0  0  0
  -15.0526  -13.4679   -0.8277 C   0  0  0  0  0  0  0  0  0  0  0  0
  -15.5860  -14.4431   -1.8851 C   0  0  0  0  0  0  0  0  0  0  0  0
  -14.7022  -15.6946   -1.9596 C   0  0  0  0  0  0  0  0  0  0  0  0
  -13.2387  -15.3252   -2.2418 C   0  0  0  0  0  0  0  0  0  0  0  0
  -10.0921  -13.6894    2.0633 N   0  0  0  0  0  0  0  0  0  0  0  0
  -10.4771  -15.4177    0.7136 O   0  0  0  0  0  0  0  0  0  0  0  0
   -9.8917  -14.5152    3.2533 C   0  0  0  0  0  0  0  0  0  0  0  0
   -8.6147  -14.0323    3.9661 C   0  0  2  0  0  0  0  0  0  0  0  0
   -7.4012  -14.1942    3.0255 C   0  0  0  0  0  0  0  0  0  0  0  0
   -6.3131  -13.4624    3.7032 N   0  0  0  0  0  0  0  0  0  0  0  0
   -6.0014  -14.0843    5.0148 C   0  0  0  0  0  0  0  0  0  0  0  0
   -7.2849  -14.0813    5.8880 C   0  0  0  0  0  0  0  0  0  0  0  0
   -8.3279  -14.7471    5.1655 O   0  0  0  0  0  0  0  0  0  0  0  0
   -5.0204  -12.9474    2.8143 S   0  0  0  0  0  0  0  0  0  0  0  0
   -3.8828  -14.3532    2.6919 C   0  0  0  0  0  0  0  0  0  0  0  0
   -5.4714  -12.6187    1.5094 O   0  0  0  0  0  0  0  0  0  0  0  0
   -4.3755  -11.9090    3.5386 O   0  0  0  0  0  0  0  0  0  0  0  0
   -2.5005  -14.2320    2.9231 C   0  0  0  0  0  0  0  0  0  0  0  0
   -1.6832  -15.3635    2.8193 C   0  0  0  0  0  0  0  0  0  0  0  0
   -2.2173  -16.5989    2.4823 C   0  0  0  0  0  0  0  0  0  0  0  0
   -3.5784  -16.7208    2.2430 C   0  0  0  0  0  0  0  0  0  0  0  0
   -4.4029  -15.6063    2.3474 C   0  0  0  0  0  0  0  0  0  0  0  0
   -1.8727  -12.9731    3.2406 C   0  0  0  0  0  0  0  0  0  0  0  0
   -1.3293  -11.9932    3.4714 N   0  0  0  0  0  0  0  0  0  0  0  0
   -5.5701  -10.3535   -3.9622 H   0  0  0  0  0  0  0  0  0  0  0  0
   -4.6508  -10.3690   -1.6116 H   0  0  0  0  0  0  0  0  0  0  0  0
   -6.5692  -11.0729   -0.0351 H   0  0  0  0  0  0  0  0  0  0  0  0
   -8.4531  -13.2399   -0.3935 H   0  0  0  0  0  0  0  0  0  0  0  0
  -11.1664  -12.4079    0.0247 H   0  0  0  0  0  0  0  0  0  0  0  0
  -10.6960  -14.6664   -1.7570 H   0  0  0  0  0  0  0  0  0  0  0  0
  -11.2749  -13.2264   -2.2651 H   0  0  0  0  0  0  0  0  0  0  0  0
  -12.6937  -14.7908   -0.2944 H   0  0  0  0  0  0  0  0  0  0  0  0
  -13.5491  -12.6136   -1.9942 H   0  0  0  0  0  0  0  0  0  0  0  0
  -13.2607  -12.4933   -0.3915 H   0  0  0  0  0  0  0  0  0  0  0  0
  -15.6109  -12.6384   -0.8351 H   0  0  0  0  0  0  0  0  0  0  0  0
  -15.1076  -13.8987    0.0731 H   0  0  0  0  0  0  0  0  0  0  0  0
  -15.5910  -13.9905   -2.7768 H   0  0  0  0  0  0  0  0  0  0  0  0
  -16.5181  -14.7128   -1.6430 H   0  0  0  0  0  0  0  0  0  0  0  0
  -15.0364  -16.2866   -2.6930 H   0  0  0  0  0  0  0  0  0  0  0  0
  -14.7533  -16.1823   -1.0881 H   0  0  0  0  0  0  0  0  0  0  0  0
  -12.6851  -16.1580   -2.2281 H   0  0  0  0  0  0  0  0  0  0  0  0
  -13.1792  -14.9003   -3.1450 H   0  0  0  0  0  0  0  0  0  0  0  0
   -9.9654  -12.7005    2.1418 H   0  0  0  0  0  0  0  0  0  0  0  0
   -9.7885  -15.4735    2.9867 H   0  0  0  0  0  0  0  0  0  0  0  0
  -10.6767  -14.4223    3.8657 H   0  0  0  0  0  0  0  0  0  0  0  0
   -8.7197  -13.0631    4.1887 H   0  0  0  0  0  0  0  0  0  0  0  0
   -7.5922  -13.7943    2.1291 H   0  0  0  0  0  0  0  0  0  0  0  0
   -7.1642  -15.1596    2.9162 H   0  0  0  0  0  0  0  0  0  0  0  0
   -5.2824  -13.5612    5.4723 H   0  0  0  0  0  0  0  0  0  0  0  0
   -5.6919  -15.0250    4.8755 H   0  0  0  0  0  0  0  0  0  0  0  0
   -7.5580  -13.1393    6.0831 H   0  0  0  0  0  0  0  0  0  0  0  0
   -7.1096  -14.5622    6.7471 H   0  0  0  0  0  0  0  0  0  0  0  0
   -0.7014  -15.2804    2.9901 H   0  0  0  0  0  0  0  0  0  0  0  0
   -1.6226  -17.3997    2.4122 H   0  0  0  0  0  0  0  0  0  0  0  0
   -3.9657  -17.6090    1.9958 H   0  0  0  0  0  0  0  0  0  0  0  0
   -5.3831  -15.7014    2.1737 H   0  0  0  0  0  0  0  0  0  0  0  0
  1  2  2  0  0  0  0
  1  5  1  0  0  0  0
  1 38  1  0  0  0  0
  2  3  1  0  0  0  0
  2 39  1  0  0  0  0
  3  4  2  0  0  0  0
  3 40  1  0  0  0  0
  4  5  1  0  0  0  0
  4  6  1  0  0  0  0
  6  7  1  0  0  0  0
  6  8  2  0  0  0  0
  7  9  1  0  0  0  0
  7 41  1  0  0  0  0
  9 10  1  0  0  0  0
  9 11  1  0  0  0  0
  9 42  1  1  0  0  0
 10 18  1  0  0  0  0
 10 19  2  0  0  0  0
 11 12  1  0  0  0  0
 11 43  1  0  0  0  0
 11 44  1  0  0  0  0
 12 13  1  0  0  0  0
 12 17  1  0  0  0  0
 12 45  1  0  0  0  0
 13 14  1  0  0  0  0
 13 46  1  0  0  0  0
 13 47  1  0  0  0  0
 14 15  1  0  0  0  0
 14 48  1  0  0  0  0
 14 49  1  0  0  0  0
 15 16  1  0  0  0  0
 15 50  1  0  0  0  0
 15 51  1  0  0  0  0
 16 17  1  0  0  0  0
 16 52  1  0  0  0  0
 16 53  1  0  0  0  0
 17 54  1  0  0  0  0
 17 55  1  0  0  0  0
 18 20  1  0  0  0  0
 18 56  1  0  0  0  0
 20 21  1  0  0  0  0
 20 57  1  0  0  0  0
 20 58  1  0  0  0  0
 21 22  1  0  0  0  0
 21 26  1  0  0  0  0
 21 59  1  1  0  0  0
 22 23  1  0  0  0  0
 22 60  1  0  0  0  0
 22 61  1  0  0  0  0
 23 24  1  0  0  0  0
 23 27  1  0  0  0  0
 24 25  1  0  0  0  0
 24 62  1  0  0  0  0
 24 63  1  0  0  0  0
 25 26  1  0  0  0  0
 25 64  1  0  0  0  0
 25 65  1  0  0  0  0
 27 28  1  0  0  0  0
 27 29  2  0  0  0  0
 27 30  2  0  0  0  0
 28 31  2  0  0  0  0
 28 35  1  0  0  0  0
 31 32  1  0  0  0  0
 31 36  1  0  0  0  0
 32 33  2  0  0  0  0
 32 66  1  0  0  0  0
 33 34  1  0  0  0  0
 33 67  1  0  0  0  0
 34 35  2  0  0  0  0
 34 68  1  0  0  0  0
 35 69  1  0  0  0  0
 36 37  3  0  0  0  0
M  END
>  <BIOSOLVEIT.HYDE_ESTIMATED_AFFINITY_LOWER_BOUNDARY [nM]>
340231568035823424.000000

>  <BIOSOLVEIT.HYDE_ESTIMATED_AFFINITY_UPPER_BOUNDARY [nM]>
33804017892590309376.000000

>  <BIOSOLVEIT.HYDE_LIGAND_EFFICIENCY range: ++, +, 0, -, -->
--

>  <BIOSOLVEIT.HYDE_LIGAND_LIPOPHILIC_EFFICIENCY range: ++, +, 0, -, -->
--

>  <BIOSOLVEIT.INTER_CLASH range: red, yellow, green>
green

>  <BIOSOLVEIT.INTRA_CLASH range: red, yellow, green>
red

>  <BIOSOLVEIT.LOGP>
3.07658

>  <BIOSOLVEIT.MOLECULAR WEIGHT>
528.626

>  <BIOSOLVEIT.MOLECULE_CHECKSUM>
NTQuMzk5NDsw

>  <BIOSOLVEIT.TORSION_QUALITY range: red, yellow, green, not rotatable>
yellow

>  <BIOSOLVEIT.TPSA>
141.74

$$$$
