Z52832973.****
 OpenBabel12172121453D
Hydescorer 1.1.2 b8048283
 37 38  0  0  0  0  0  0  0  0999 V2000
   -5.3711  -10.8434   -2.6405 C   0  0  0  0  0  0  0  0  0  0  0  0
   -6.0357  -10.6213   -3.8465 C   0  0  0  0  0  0  0  0  0  0  0  0
   -7.4045  -10.3666   -3.8416 C   0  0  0  0  0  0  0  0  0  0  0  0
   -8.1046  -10.3325   -2.6343 C   0  0  0  0  0  0  0  0  0  0  0  0
   -7.4331  -10.5355   -1.4249 C   0  0  0  0  0  0  0  0  0  0  0  0
   -6.0685  -10.7959   -1.4355 C   0  0  0  0  0  0  0  0  0  0  0  0
   -5.2735  -10.6748   -5.1529 C   0  0  0  0  0  0  0  0  0  0  0  0
   -9.4804  -10.0816   -2.6838 N   0  0  0  0  0  0  0  0  0  0  0  0
  -10.2899  -10.3240   -1.4482 C   0  0  0  0  0  0  0  0  0  0  0  0
  -11.4941  -11.1929   -1.8053 C   0  0  0  0  0  0  0  0  0  0  0  0
  -11.2733  -12.5459   -1.8517 N   0  0  0  0  0  0  0  0  0  0  0  0
  -12.1865  -13.6025   -2.1518 C   0  0  0  0  0  0  0  0  0  0  0  0
  -12.4153  -14.5700   -1.1600 C   0  0  0  0  0  0  0  0  0  0  0  0
  -13.2958  -15.6184   -1.4149 C   0  0  0  0  0  0  0  0  0  0  0  0
  -13.9537  -15.6985   -2.6410 C   0  0  0  0  0  0  0  0  0  0  0  0
  -13.7509  -14.7260   -3.6304 C   0  0  0  0  0  0  0  0  0  0  0  0
  -12.8584  -13.6763   -3.3741 C   0  0  0  0  0  0  0  0  0  0  0  0
  -11.6174  -14.4856    0.3806 Cl  0  0  0  0  0  0  0  0  0  0  0  0
  -12.5871  -10.7251   -2.0532 O   0  0  0  0  0  0  0  0  0  0  0  0
  -14.4694  -14.8129   -4.9866 C   0  0  0  0  0  0  0  0  0  0  0  0
  -15.6444  -15.4602   -4.8576 F   0  0  0  0  0  0  0  0  0  0  0  0
  -14.7125  -13.5790   -5.4661 F   0  0  0  0  0  0  0  0  0  0  0  0
  -13.6993  -15.4802   -5.8571 F   0  0  0  0  0  0  0  0  0  0  0  0
   -4.3901  -11.0376   -2.6409 H   0  0  0  0  0  0  0  0  0  0  0  0
   -7.8863  -10.2081   -4.7034 H   0  0  0  0  0  0  0  0  0  0  0  0
   -7.9312  -10.4937   -0.5588 H   0  0  0  0  0  0  0  0  0  0  0  0
   -5.5846  -10.9500   -0.5741 H   0  0  0  0  0  0  0  0  0  0  0  0
   -5.8992  -10.4938   -5.9116 H   0  0  0  0  0  0  0  0  0  0  0  0
   -4.5501   -9.9843   -5.1454 H   0  0  0  0  0  0  0  0  0  0  0  0
   -4.8673  -11.5817   -5.2649 H   0  0  0  0  0  0  0  0  0  0  0  0
   -9.9115   -9.7491   -3.5226 H   0  0  0  0  0  0  0  0  0  0  0  0
  -10.6050   -9.4506   -1.0770 H   0  0  0  0  0  0  0  0  0  0  0  0
   -9.7285  -10.7928   -0.7662 H   0  0  0  0  0  0  0  0  0  0  0  0
  -10.3381  -12.8342   -1.6458 H   0  0  0  0  0  0  0  0  0  0  0  0
  -13.4564  -16.3157   -0.7164 H   0  0  0  0  0  0  0  0  0  0  0  0
  -14.5785  -16.4592   -2.8171 H   0  0  0  0  0  0  0  0  0  0  0  0
  -12.7017  -12.9759   -4.0705 H   0  0  0  0  0  0  0  0  0  0  0  0
  1  2  2  0  0  0  0
  1  6  1  0  0  0  0
  1 24  1  0  0  0  0
  2  3  1  0  0  0  0
  2  7  1  0  0  0  0
  3  4  2  0  0  0  0
  3 25  1  0  0  0  0
  4  5  1  0  0  0  0
  4  8  1  0  0  0  0
  5  6  2  0  0  0  0
  5 26  1  0  0  0  0
  6 27  1  0  0  0  0
  7 28  1  0  0  0  0
  7 29  1  0  0  0  0
  7 30  1  0  0  0  0
  8  9  1  0  0  0  0
  8 31  1  0  0  0  0
  9 10  1  0  0  0  0
  9 32  1  0  0  0  0
  9 33  1  0  0  0  0
 10 11  1  0  0  0  0
 10 19  2  0  0  0  0
 11 12  1  0  0  0  0
 11 34  1  0  0  0  0
 12 13  2  0  0  0  0
 12 17  1  0  0  0  0
 13 14  1  0  0  0  0
 13 18  1  0  0  0  0
 14 15  2  0  0  0  0
 14 35  1  0  0  0  0
 15 16  1  0  0  0  0
 15 36  1  0  0  0  0
 16 17  2  0  0  0  0
 16 20  1  0  0  0  0
 17 37  1  0  0  0  0
 20 21  1  0  0  0  0
 20 22  1  0  0  0  0
 20 23  1  0  0  0  0
M  END
>  <BIOSOLVEIT.HYDE_ESTIMATED_AFFINITY_LOWER_BOUNDARY [nM]>
6861182.833938

>  <BIOSOLVEIT.HYDE_ESTIMATED_AFFINITY_UPPER_BOUNDARY [nM]>
681699081.075162

>  <BIOSOLVEIT.HYDE_LIGAND_EFFICIENCY range: ++, +, 0, -, -->
--

>  <BIOSOLVEIT.HYDE_LIGAND_LIPOPHILIC_EFFICIENCY range: ++, +, 0, -, -->
--

>  <BIOSOLVEIT.INTER_CLASH range: red, yellow, green>
green

>  <BIOSOLVEIT.INTRA_CLASH range: red, yellow, green>
green

>  <BIOSOLVEIT.LOGP>
4.71782

>  <BIOSOLVEIT.MOLECULAR WEIGHT>
342.747

>  <BIOSOLVEIT.MOLECULE_CHECKSUM>
LTYuNjQ5ODU7MC4yODkxMjQ=

>  <BIOSOLVEIT.TORSION_QUALITY range: red, yellow, green, not rotatable>
yellow

>  <BIOSOLVEIT.TPSA>
41.13

$$$$
