PV-001799431004.****
 OpenBabel12172121453D
Hydescorer 1.1.2 b8048283
 61 64  0  0  0  0  0  0  0  0999 V2000
   -6.3959  -14.1160    2.8998 N   0  0  0  0  0  0  0  0  0  0  0  0
   -7.7202  -14.7407    2.7578 C   0  0  1  0  0  0  0  0  0  0  0  0
   -8.7319  -14.1665    3.7855 C   0  0  0  0  0  0  0  0  0  0  0  0
   -9.7482  -13.4864    2.9460 N   0  3  1  0  0  0  0  0  0  0  0  0
   -9.7756  -14.2268    1.6878 C   0  0  0  0  0  0  0  0  0  0  0  0
   -8.2811  -14.3302    1.3969 C   0  0  0  0  0  0  0  0  0  0  0  0
  -11.0869  -13.5567    3.5774 C   0  0  0  0  0  0  0  0  0  0  0  0
  -11.4447  -15.0559    3.6758 C   0  0  0  0  0  0  0  0  0  0  0  0
  -11.9200  -15.4566    5.0809 C   0  0  0  0  0  0  0  0  0  0  0  0
  -12.7638  -16.7133    4.8511 C   0  0  0  0  0  0  0  0  0  0  0  0
  -13.1948  -16.6757    3.3808 C   0  0  0  0  0  0  0  0  0  0  0  0
  -12.6984  -15.3344    2.8429 C   0  0  0  0  0  0  0  0  0  0  0  0
   -5.2905  -14.6890    3.4628 C   0  0  0  0  0  0  0  0  0  0  0  0
   -5.4397  -15.8434    3.8110 O   0  0  0  0  0  0  0  0  0  0  0  0
   -4.0290  -13.9576    3.5427 C   0  0  0  0  0  0  0  0  0  0  0  0
   -2.9400  -14.3188    2.7323 C   0  0  0  0  0  0  0  0  0  0  0  0
   -1.6766  -13.8069    2.9907 C   0  0  0  0  0  0  0  0  0  0  0  0
   -1.5135  -12.9115    4.0459 C   0  0  0  0  0  0  0  0  0  0  0  0
   -2.6069  -12.4119    4.7513 C   0  0  0  0  0  0  0  0  0  0  0  0
   -3.8668  -12.9403    4.4957 C   0  0  0  0  0  0  0  0  0  0  0  0
   -0.2434  -12.6333    4.4794 O   0  0  0  0  0  0  0  0  0  0  0  0
    0.4560  -13.7855    4.7421 C   0  0  0  0  0  0  0  0  0  0  0  0
   -0.0952  -14.7225    5.6151 C   0  0  0  0  0  0  0  0  0  0  0  0
    0.4793  -15.9798    5.7080 C   0  0  0  0  0  0  0  0  0  0  0  0
    1.6062  -16.3134    4.9384 C   0  0  0  0  0  0  0  0  0  0  0  0
    2.2134  -15.3122    4.1550 C   0  0  0  0  0  0  0  0  0  0  0  0
    1.6371  -14.0491    4.0536 C   0  0  0  0  0  0  0  0  0  0  0  0
    2.0781  -17.6926    4.9329 C   0  0  0  0  0  0  0  0  0  0  0  0
    3.2560  -18.1376    4.0994 C   0  0  0  0  0  0  0  0  0  0  0  0
    1.4779  -18.5390    5.5664 O   0  0  0  0  0  0  0  0  0  0  0  0
   -6.2952  -13.1841    2.5514 H   0  0  0  0  0  0  0  0  0  0  0  0
   -7.6573  -15.7358    2.8343 H   0  0  0  0  0  0  0  0  0  0  0  0
   -8.2846  -13.5159    4.3994 H   0  0  0  0  0  0  0  0  0  0  0  0
   -9.1478  -14.9000    4.3231 H   0  0  0  0  0  0  0  0  0  0  0  0
  -10.2574  -13.7215    0.9719 H   0  0  0  0  0  0  0  0  0  0  0  0
  -10.1938  -15.1284    1.7986 H   0  0  0  0  0  0  0  0  0  0  0  0
   -8.0935  -15.0245    0.7021 H   0  0  0  0  0  0  0  0  0  0  0  0
   -7.9072  -13.4517    1.0997 H   0  0  0  0  0  0  0  0  0  0  0  0
  -11.7602  -13.0767    3.0150 H   0  0  0  0  0  0  0  0  0  0  0  0
  -11.0612  -13.1468    4.4892 H   0  0  0  0  0  0  0  0  0  0  0  0
  -10.6807  -15.6281    3.3779 H   0  0  0  0  0  0  0  0  0  0  0  0
  -12.4718  -14.7292    5.4890 H   0  0  0  0  0  0  0  0  0  0  0  0
  -11.1407  -15.6568    5.6747 H   0  0  0  0  0  0  0  0  0  0  0  0
  -13.5662  -16.7061    5.4479 H   0  0  0  0  0  0  0  0  0  0  0  0
  -12.2210  -17.5334    5.0324 H   0  0  0  0  0  0  0  0  0  0  0  0
  -14.1903  -16.7349    3.3069 H   0  0  0  0  0  0  0  0  0  0  0  0
  -12.7776  -17.4308    2.8751 H   0  0  0  0  0  0  0  0  0  0  0  0
  -12.4740  -15.4003    1.8707 H   0  0  0  0  0  0  0  0  0  0  0  0
  -13.3840  -14.6191    2.9790 H   0  0  0  0  0  0  0  0  0  0  0  0
   -3.0758  -14.9472    1.9664 H   0  0  0  0  0  0  0  0  0  0  0  0
   -0.8950  -14.0764    2.4281 H   0  0  0  0  0  0  0  0  0  0  0  0
   -2.4870  -11.6865    5.4291 H   0  0  0  0  0  0  0  0  0  0  0  0
   -4.6619  -12.5938    4.9935 H   0  0  0  0  0  0  0  0  0  0  0  0
   -0.8955  -14.4898    6.1676 H   0  0  0  0  0  0  0  0  0  0  0  0
    0.0873  -16.6576    6.3300 H   0  0  0  0  0  0  0  0  0  0  0  0
    3.0642  -15.5104    3.6684 H   0  0  0  0  0  0  0  0  0  0  0  0
    2.0658  -13.3403    3.4934 H   0  0  0  0  0  0  0  0  0  0  0  0
    3.4131  -19.1153    4.2393 H   0  0  0  0  0  0  0  0  0  0  0  0
    3.0645  -17.9657    3.1331 H   0  0  0  0  0  0  0  0  0  0  0  0
    4.0706  -17.6265    4.3739 H   0  0  0  0  0  0  0  0  0  0  0  0
   -9.4877  -12.5344    2.7851 H   0  0  0  0  0  0  0  0  0  0  0  0
  1  2  1  0  0  0  0
  1 13  1  0  0  0  0
  1 31  1  0  0  0  0
  2  3  1  0  0  0  0
  2  6  1  0  0  0  0
  2 32  1  1  0  0  0
  3  4  1  0  0  0  0
  3 33  1  0  0  0  0
  3 34  1  0  0  0  0
  4  5  1  0  0  0  0
  4  7  1  0  0  0  0
  4 61  1  6  0  0  0
  5  6  1  0  0  0  0
  5 35  1  0  0  0  0
  5 36  1  0  0  0  0
  6 37  1  0  0  0  0
  6 38  1  0  0  0  0
  7  8  1  0  0  0  0
  7 39  1  0  0  0  0
  7 40  1  0  0  0  0
  8  9  1  0  0  0  0
  8 12  1  0  0  0  0
  8 41  1  0  0  0  0
  9 10  1  0  0  0  0
  9 42  1  0  0  0  0
  9 43  1  0  0  0  0
 10 11  1  0  0  0  0
 10 44  1  0  0  0  0
 10 45  1  0  0  0  0
 11 12  1  0  0  0  0
 11 46  1  0  0  0  0
 11 47  1  0  0  0  0
 12 48  1  0  0  0  0
 12 49  1  0  0  0  0
 13 14  2  0  0  0  0
 13 15  1  0  0  0  0
 15 16  2  0  0  0  0
 15 20  1  0  0  0  0
 16 17  1  0  0  0  0
 16 50  1  0  0  0  0
 17 18  2  0  0  0  0
 17 51  1  0  0  0  0
 18 19  1  0  0  0  0
 18 21  1  0  0  0  0
 19 20  2  0  0  0  0
 19 52  1  0  0  0  0
 20 53  1  0  0  0  0
 21 22  1  0  0  0  0
 22 23  2  0  0  0  0
 22 27  1  0  0  0  0
 23 24  1  0  0  0  0
 23 54  1  0  0  0  0
 24 25  2  0  0  0  0
 24 55  1  0  0  0  0
 25 26  1  0  0  0  0
 25 28  1  0  0  0  0
 26 27  2  0  0  0  0
 26 56  1  0  0  0  0
 27 57  1  0  0  0  0
 28 29  1  0  0  0  0
 28 30  2  0  0  0  0
 29 58  1  0  0  0  0
 29 59  1  0  0  0  0
 29 60  1  0  0  0  0
M  CHG  1   4   1
M  END
>  <BIOSOLVEIT.HYDE_ESTIMATED_AFFINITY_LOWER_BOUNDARY [nM]>
38082166124.577309

>  <BIOSOLVEIT.HYDE_ESTIMATED_AFFINITY_UPPER_BOUNDARY [nM]>
3783688364062.276367

>  <BIOSOLVEIT.HYDE_LIGAND_EFFICIENCY range: ++, +, 0, -, -->
--

>  <BIOSOLVEIT.HYDE_LIGAND_LIPOPHILIC_EFFICIENCY range: ++, +, 0, -, -->
--

>  <BIOSOLVEIT.INTER_CLASH range: red, yellow, green>
green

>  <BIOSOLVEIT.INTRA_CLASH range: red, yellow, green>
green

>  <BIOSOLVEIT.LOGP>
3.2587

>  <BIOSOLVEIT.MOLECULAR WEIGHT>
407.531

>  <BIOSOLVEIT.MOLECULE_CHECKSUM>
MTQuNzIyODsw

>  <BIOSOLVEIT.TORSION_QUALITY range: red, yellow, green, not rotatable>
red

>  <BIOSOLVEIT.TPSA>
59.84

$$$$
