Z297320586.****
 OpenBabel12172121453D
Hydescorer 1.1.2 b8048283
 33 34  0  0  0  0  0  0  0  0999 V2000
    2.5236  -17.8496   -0.4332 C   0  0  0  0  0  0  0  0  0  0  0  0
    3.8698  -17.9951   -0.1246 C   0  0  0  0  0  0  0  0  0  0  0  0
    4.3045  -17.6448    1.1505 C   0  0  0  0  0  0  0  0  0  0  0  0
    3.3942  -17.1536    2.0863 C   0  0  0  0  0  0  0  0  0  0  0  0
    2.0310  -16.9961    1.7614 C   0  0  0  0  0  0  0  0  0  0  0  0
    1.6006  -17.3633    0.4793 C   0  0  0  0  0  0  0  0  0  0  0  0
    2.0998  -18.1944   -1.6694 F   0  0  0  0  0  0  0  0  0  0  0  0
    1.0640  -16.4680    2.7278 C   0  0  0  0  0  0  0  0  0  0  0  0
    0.5698  -17.1514    3.6149 O   0  0  0  0  0  0  0  0  0  0  0  0
    0.6593  -15.1556    2.5988 N   0  0  0  0  0  0  0  0  0  0  0  0
   -0.2638  -14.4575    3.4264 C   0  0  0  0  0  0  0  0  0  0  0  0
    0.2015  -13.8736    4.6113 C   0  0  0  0  0  0  0  0  0  0  0  0
   -0.6450  -13.1784    5.4659 C   0  0  0  0  0  0  0  0  0  0  0  0
   -1.9963  -13.0710    5.1403 C   0  0  0  0  0  0  0  0  0  0  0  0
   -2.4717  -13.6739    3.9693 C   0  0  0  0  0  0  0  0  0  0  0  0
   -1.6189  -14.3657    3.1035 C   0  0  0  0  0  0  0  0  0  0  0  0
    1.5071  -13.9868    4.9463 F   0  0  0  0  0  0  0  0  0  0  0  0
   -3.8475  -13.5378    3.6735 N   0  0  0  0  0  0  0  0  0  0  0  0
   -4.3791  -13.3106    2.4349 C   0  0  0  0  0  0  0  0  0  0  0  0
   -3.6721  -13.2316    1.4543 O   0  0  0  0  0  0  0  0  0  0  0  0
   -5.8767  -13.2008    2.3598 C   0  0  0  0  0  0  0  0  0  0  0  0
    4.5140  -18.3446   -0.8049 H   0  0  0  0  0  0  0  0  0  0  0  0
    5.2688  -17.7452    1.3956 H   0  0  0  0  0  0  0  0  0  0  0  0
    3.7132  -16.9093    3.0020 H   0  0  0  0  0  0  0  0  0  0  0  0
    0.6374  -17.2754    0.2254 H   0  0  0  0  0  0  0  0  0  0  0  0
    1.0579  -14.6388    1.8412 H   0  0  0  0  0  0  0  0  0  0  0  0
   -0.2902  -12.7610    6.3025 H   0  0  0  0  0  0  0  0  0  0  0  0
   -2.6206  -12.5679    5.7378 H   0  0  0  0  0  0  0  0  0  0  0  0
   -1.9731  -14.7870    2.2686 H   0  0  0  0  0  0  0  0  0  0  0  0
   -4.4879  -13.6145    4.4376 H   0  0  0  0  0  0  0  0  0  0  0  0
   -6.1517  -13.0357    1.4127 H   0  0  0  0  0  0  0  0  0  0  0  0
   -6.2901  -14.0519    2.6834 H   0  0  0  0  0  0  0  0  0  0  0  0
   -6.1845  -12.4416    2.9334 H   0  0  0  0  0  0  0  0  0  0  0  0
  1  2  2  0  0  0  0
  1  6  1  0  0  0  0
  1  7  1  0  0  0  0
  2  3  1  0  0  0  0
  2 22  1  0  0  0  0
  3  4  2  0  0  0  0
  3 23  1  0  0  0  0
  4  5  1  0  0  0  0
  4 24  1  0  0  0  0
  5  6  2  0  0  0  0
  5  8  1  0  0  0  0
  6 25  1  0  0  0  0
  8  9  2  0  0  0  0
  8 10  1  0  0  0  0
 10 11  1  0  0  0  0
 10 26  1  0  0  0  0
 11 12  2  0  0  0  0
 11 16  1  0  0  0  0
 12 13  1  0  0  0  0
 12 17  1  0  0  0  0
 13 14  2  0  0  0  0
 13 27  1  0  0  0  0
 14 15  1  0  0  0  0
 14 28  1  0  0  0  0
 15 16  2  0  0  0  0
 15 18  1  0  0  0  0
 16 29  1  0  0  0  0
 18 19  1  0  0  0  0
 18 30  1  0  0  0  0
 19 20  2  0  0  0  0
 19 21  1  0  0  0  0
 21 31  1  0  0  0  0
 21 32  1  0  0  0  0
 21 33  1  0  0  0  0
M  END
>  <BIOSOLVEIT.HYDE_ESTIMATED_AFFINITY_LOWER_BOUNDARY [nM]>
542296587.836924

>  <BIOSOLVEIT.HYDE_ESTIMATED_AFFINITY_UPPER_BOUNDARY [nM]>
53880372312.776917

>  <BIOSOLVEIT.HYDE_LIGAND_EFFICIENCY range: ++, +, 0, -, -->
--

>  <BIOSOLVEIT.HYDE_LIGAND_LIPOPHILIC_EFFICIENCY range: ++, +, 0, -, -->
--

>  <BIOSOLVEIT.INTER_CLASH range: red, yellow, green>
green

>  <BIOSOLVEIT.INTRA_CLASH range: red, yellow, green>
yellow

>  <BIOSOLVEIT.LOGP>
3.1755

>  <BIOSOLVEIT.MOLECULAR WEIGHT>
290.268

>  <BIOSOLVEIT.MOLECULE_CHECKSUM>
NC4xODMwMjsw

>  <BIOSOLVEIT.TORSION_QUALITY range: red, yellow, green, not rotatable>
yellow

>  <BIOSOLVEIT.TPSA>
58.2

$$$$
