m_22bba____14316652____9279318
 OpenBabel12172121453D
Hydescorer 1.1.2 b8048283
 57 59  0  0  0  0  0  0  0  0999 V2000
   -9.9718  -13.6923    5.1226 Cl  0  0  0  0  0  0  0  0  0  0  0  0
   -8.9449  -14.3076    3.8655 C   0  0  0  0  0  0  0  0  0  0  0  0
   -9.2308  -14.1575    2.4839 C   0  0  0  0  0  0  0  0  0  0  0  0
   -8.3989  -14.5698    1.5311 N   0  0  0  0  0  0  0  0  0  0  0  0
   -7.2624  -15.1764    1.8849 C   0  0  0  0  0  0  0  0  0  0  0  0
   -6.9002  -15.3923    3.2227 C   0  0  0  0  0  0  0  0  0  0  0  0
   -7.7714  -14.9463    4.2308 C   0  0  0  0  0  0  0  0  0  0  0  0
   -5.6377  -16.0680    3.5114 C   0  0  0  0  0  0  0  0  0  0  0  0
   -5.5849  -17.1182    4.1347 O   0  0  0  0  0  0  0  0  0  0  0  0
   -4.4555  -15.5252    3.0673 N   0  0  0  0  0  0  0  0  0  0  0  0
   -3.0975  -16.0840    3.2757 C   0  0  1  0  0  0  0  0  0  0  0  0
   -2.7249  -16.1306    4.7859 C   0  0  2  0  0  0  0  0  0  0  0  0
   -2.6836  -14.8338    5.2386 F   0  0  0  0  0  0  0  0  0  0  0  0
   -1.2906  -16.6807    4.9006 C   0  0  0  0  0  0  0  0  0  0  0  0
   -1.2862  -17.9971    4.2232 N   0  0  0  0  0  0  0  0  0  0  0  0
   -1.2411  -19.1543    4.9697 C   0  0  0  0  0  0  0  0  0  0  0  0
   -1.5621  -19.1765    6.1492 O   0  0  0  0  0  0  0  0  0  0  0  0
   -0.8207  -20.2543    4.3115 O   0  0  0  0  0  0  0  0  0  0  0  0
    0.4396  -20.9392    4.4480 C   0  0  0  0  0  0  0  0  0  0  0  0
    1.4470  -19.9178    4.9798 C   0  0  0  0  0  0  0  0  0  0  0  0
    0.9317  -21.4413    3.0855 C   0  0  0  0  0  0  0  0  0  0  0  0
    0.3264  -22.0820    5.4640 C   0  0  0  0  0  0  0  0  0  0  0  0
   -1.5788  -17.9921    2.7786 C   0  0  0  0  0  0  0  0  0  0  0  0
   -3.0330  -17.4994    2.6636 C   0  0  0  0  0  0  0  0  0  0  0  0
  -10.3658  -13.5631    1.9666 N   0  0  0  0  0  0  0  0  0  0  0  0
  -11.1440  -14.0751    0.9113 C   0  0  0  0  0  0  0  0  0  0  0  0
  -11.5450  -13.2544   -0.1462 C   0  0  0  0  0  0  0  0  0  0  0  0
  -12.3235  -13.7877   -1.1685 C   0  0  0  0  0  0  0  0  0  0  0  0
  -12.7044  -15.1320   -1.1279 C   0  0  0  0  0  0  0  0  0  0  0  0
  -13.6732  -15.7931   -2.3996 Cl  0  0  0  0  0  0  0  0  0  0  0  0
  -12.3068  -15.9447   -0.0620 C   0  0  0  0  0  0  0  0  0  0  0  0
  -11.5269  -15.4165    0.9616 C   0  0  0  0  0  0  0  0  0  0  0  0
   -6.6433  -15.4902    1.1650 H   0  0  0  0  0  0  0  0  0  0  0  0
   -7.5480  -15.0875    5.1953 H   0  0  0  0  0  0  0  0  0  0  0  0
   -4.5170  -14.6696    2.5533 H   0  0  0  0  0  0  0  0  0  0  0  0
   -2.4369  -15.5015    2.8022 H   0  0  0  0  0  0  0  0  0  0  0  0
   -3.3742  -16.6829    5.3087 H   0  0  0  0  0  0  0  0  0  0  0  0
   -1.0378  -16.7868    5.8623 H   0  0  0  0  0  0  0  0  0  0  0  0
   -0.6464  -16.0604    4.4531 H   0  0  0  0  0  0  0  0  0  0  0  0
    2.3394  -20.3556    5.0892 H   0  0  0  0  0  0  0  0  0  0  0  0
    1.5251  -19.1589    4.3334 H   0  0  0  0  0  0  0  0  0  0  0  0
    1.1351  -19.5713    5.8645 H   0  0  0  0  0  0  0  0  0  0  0  0
    1.8059  -21.9131    3.2000 H   0  0  0  0  0  0  0  0  0  0  0  0
    0.2594  -22.0738    2.7007 H   0  0  0  0  0  0  0  0  0  0  0  0
    1.0506  -20.6645    2.4671 H   0  0  0  0  0  0  0  0  0  0  0  0
    1.2092  -22.5446    5.5451 H   0  0  0  0  0  0  0  0  0  0  0  0
    0.0612  -21.7116    6.3542 H   0  0  0  0  0  0  0  0  0  0  0  0
   -0.3651  -22.7351    5.1553 H   0  0  0  0  0  0  0  0  0  0  0  0
   -1.4894  -18.9131    2.3995 H   0  0  0  0  0  0  0  0  0  0  0  0
   -0.9591  -17.3720    2.2974 H   0  0  0  0  0  0  0  0  0  0  0  0
   -3.3071  -17.4678    1.7024 H   0  0  0  0  0  0  0  0  0  0  0  0
   -3.6420  -18.1151    3.1637 H   0  0  0  0  0  0  0  0  0  0  0  0
  -10.6582  -12.6985    2.3753 H   0  0  0  0  0  0  0  0  0  0  0  0
  -11.2747  -12.2920   -0.1680 H   0  0  0  0  0  0  0  0  0  0  0  0
  -12.6105  -13.2094   -1.9321 H   0  0  0  0  0  0  0  0  0  0  0  0
  -12.5830  -16.9054   -0.0354 H   0  0  0  0  0  0  0  0  0  0  0  0
  -11.2427  -15.9933    1.7275 H   0  0  0  0  0  0  0  0  0  0  0  0
  1  2  1  0  0  0  0
  2  3  2  0  0  0  0
  2  7  1  0  0  0  0
  3  4  1  0  0  0  0
  3 25  1  0  0  0  0
  4  5  2  0  0  0  0
  5  6  1  0  0  0  0
  5 33  1  0  0  0  0
  6  7  2  0  0  0  0
  6  8  1  0  0  0  0
  7 34  1  0  0  0  0
  8  9  2  0  0  0  0
  8 10  1  0  0  0  0
 10 11  1  0  0  0  0
 10 35  1  0  0  0  0
 11 12  1  0  0  0  0
 11 24  1  0  0  0  0
 11 36  1  6  0  0  0
 12 13  1  0  0  0  0
 12 14  1  0  0  0  0
 12 37  1  1  0  0  0
 14 15  1  0  0  0  0
 14 38  1  0  0  0  0
 14 39  1  0  0  0  0
 15 16  1  0  0  0  0
 15 23  1  0  0  0  0
 16 17  2  0  0  0  0
 16 18  1  0  0  0  0
 18 19  1  0  0  0  0
 19 20  1  0  0  0  0
 19 21  1  0  0  0  0
 19 22  1  0  0  0  0
 20 40  1  0  0  0  0
 20 41  1  0  0  0  0
 20 42  1  0  0  0  0
 21 43  1  0  0  0  0
 21 44  1  0  0  0  0
 21 45  1  0  0  0  0
 22 46  1  0  0  0  0
 22 47  1  0  0  0  0
 22 48  1  0  0  0  0
 23 24  1  0  0  0  0
 23 49  1  0  0  0  0
 23 50  1  0  0  0  0
 24 51  1  0  0  0  0
 24 52  1  0  0  0  0
 25 26  1  0  0  0  0
 25 53  1  0  0  0  0
 26 27  2  0  0  0  0
 26 32  1  0  0  0  0
 27 28  1  0  0  0  0
 27 54  1  0  0  0  0
 28 29  2  0  0  0  0
 28 55  1  0  0  0  0
 29 30  1  0  0  0  0
 29 31  1  0  0  0  0
 31 32  2  0  0  0  0
 31 56  1  0  0  0  0
 32 57  1  0  0  0  0
M  END
>  <BIOSOLVEIT.HYDE_ESTIMATED_AFFINITY_LOWER_BOUNDARY [nM]>
14169082.784162

>  <BIOSOLVEIT.HYDE_ESTIMATED_AFFINITY_UPPER_BOUNDARY [nM]>
1407782148.853934

>  <BIOSOLVEIT.HYDE_LIGAND_EFFICIENCY range: ++, +, 0, -, -->
--

>  <BIOSOLVEIT.HYDE_LIGAND_LIPOPHILIC_EFFICIENCY range: ++, +, 0, -, -->
--

>  <BIOSOLVEIT.INTER_CLASH range: red, yellow, green>
green

>  <BIOSOLVEIT.INTRA_CLASH range: red, yellow, green>
green

>  <BIOSOLVEIT.LOGP>
5.2093

>  <BIOSOLVEIT.MOLECULAR WEIGHT>
483.369

>  <BIOSOLVEIT.MOLECULE_CHECKSUM>
LTQuODUyMTY7MC4xNTE2Mw==

>  <BIOSOLVEIT.TORSION_QUALITY range: red, yellow, green, not rotatable>
red

>  <BIOSOLVEIT.TPSA>
83.56

$$$$
