Z28051555.****
 OpenBabel12172121453D
Hydescorer 1.1.2 b8048283
 34 36  0  0  0  0  0  0  0  0999 V2000
  -12.9672   -9.2537   -5.2209 C   0  0  0  0  0  0  0  0  0  0  0  0
  -12.9268   -9.1043   -3.8334 C   0  0  0  0  0  0  0  0  0  0  0  0
  -13.2322   -7.8617   -3.2692 C   0  0  0  0  0  0  0  0  0  0  0  0
  -13.5820   -6.7771   -4.0752 C   0  0  0  0  0  0  0  0  0  0  0  0
  -13.6273   -6.9247   -5.4588 C   0  0  0  0  0  0  0  0  0  0  0  0
  -13.3174   -8.1615   -6.0040 C   0  0  0  0  0  0  0  0  0  0  0  0
  -13.3601   -8.3127   -7.3477 F   0  0  0  0  0  0  0  0  0  0  0  0
  -12.5604  -10.2810   -2.9396 C   0  0  0  0  0  0  0  0  0  0  0  0
  -11.1451  -10.0503   -2.4472 C   0  0  0  0  0  0  0  0  0  0  0  0
  -10.1503  -10.7975   -3.0293 N   0  0  0  0  0  0  0  0  0  0  0  0
  -10.8923   -9.2608   -1.5609 O   0  0  0  0  0  0  0  0  0  0  0  0
   -8.7663  -10.7576   -2.7373 C   0  0  0  0  0  0  0  0  0  0  0  0
   -7.8020  -10.7671   -3.7463 C   0  0  0  0  0  0  0  0  0  0  0  0
   -6.4581  -10.7076   -3.3776 C   0  0  0  0  0  0  0  0  0  0  0  0
   -6.0663  -10.6750   -2.0355 C   0  0  0  0  0  0  0  0  0  0  0  0
   -7.0451  -10.6877   -1.0445 C   0  0  0  0  0  0  0  0  0  0  0  0
   -8.3949  -10.7269   -1.3908 C   0  0  0  0  0  0  0  0  0  0  0  0
   -5.4490  -10.6707   -4.4068 N   0  0  0  0  0  0  0  0  0  0  0  0
   -4.1574  -10.8699   -4.1949 N   0  0  0  0  0  0  0  0  0  0  0  0
   -3.5932  -10.7485   -5.3627 N   0  0  0  0  0  0  0  0  0  0  0  0
   -4.5260  -10.4701   -6.3146 N   0  0  0  0  0  0  0  0  0  0  0  0
   -5.6463  -10.4288   -5.6952 C   0  0  0  0  0  0  0  0  0  0  0  0
  -12.7476  -10.1327   -5.6441 H   0  0  0  0  0  0  0  0  0  0  0  0
  -13.1996   -7.7487   -2.2761 H   0  0  0  0  0  0  0  0  0  0  0  0
  -13.8000   -5.8944   -3.6590 H   0  0  0  0  0  0  0  0  0  0  0  0
  -13.8779   -6.1557   -6.0467 H   0  0  0  0  0  0  0  0  0  0  0  0
  -12.6068  -11.1336   -3.4601 H   0  0  0  0  0  0  0  0  0  0  0  0
  -13.1890  -10.3297   -2.1634 H   0  0  0  0  0  0  0  0  0  0  0  0
  -10.4361  -11.4418   -3.7386 H   0  0  0  0  0  0  0  0  0  0  0  0
   -8.0678  -10.8153   -4.7092 H   0  0  0  0  0  0  0  0  0  0  0  0
   -5.0973  -10.6431   -1.7907 H   0  0  0  0  0  0  0  0  0  0  0  0
   -6.7784  -10.6687   -0.0809 H   0  0  0  0  0  0  0  0  0  0  0  0
   -9.0955  -10.7329   -0.6773 H   0  0  0  0  0  0  0  0  0  0  0  0
   -6.5331  -10.2427   -6.1182 H   0  0  0  0  0  0  0  0  0  0  0  0
  1  2  2  0  0  0  0
  1  6  1  0  0  0  0
  1 23  1  0  0  0  0
  2  3  1  0  0  0  0
  2  8  1  0  0  0  0
  3  4  2  0  0  0  0
  3 24  1  0  0  0  0
  4  5  1  0  0  0  0
  4 25  1  0  0  0  0
  5  6  2  0  0  0  0
  5 26  1  0  0  0  0
  6  7  1  0  0  0  0
  8  9  1  0  0  0  0
  8 27  1  0  0  0  0
  8 28  1  0  0  0  0
  9 10  1  0  0  0  0
  9 11  2  0  0  0  0
 10 12  1  0  0  0  0
 10 29  1  0  0  0  0
 12 13  2  0  0  0  0
 12 17  1  0  0  0  0
 13 14  1  0  0  0  0
 13 30  1  0  0  0  0
 14 15  2  0  0  0  0
 14 18  1  0  0  0  0
 15 16  1  0  0  0  0
 15 31  1  0  0  0  0
 16 17  2  0  0  0  0
 16 32  1  0  0  0  0
 17 33  1  0  0  0  0
 18 19  1  0  0  0  0
 18 22  1  0  0  0  0
 19 20  2  0  0  0  0
 20 21  1  0  0  0  0
 21 22  2  0  0  0  0
 22 34  1  0  0  0  0
M  END
>  <BIOSOLVEIT.HYDE_ESTIMATED_AFFINITY_LOWER_BOUNDARY [nM]>
3656291126.428988

>  <BIOSOLVEIT.HYDE_ESTIMATED_AFFINITY_UPPER_BOUNDARY [nM]>
363274141114.709839

>  <BIOSOLVEIT.HYDE_LIGAND_EFFICIENCY range: ++, +, 0, -, -->
--

>  <BIOSOLVEIT.HYDE_LIGAND_LIPOPHILIC_EFFICIENCY range: ++, +, 0, -, -->
--

>  <BIOSOLVEIT.INTER_CLASH range: red, yellow, green>
green

>  <BIOSOLVEIT.INTRA_CLASH range: red, yellow, green>
green

>  <BIOSOLVEIT.LOGP>
1.9826

>  <BIOSOLVEIT.MOLECULAR WEIGHT>
297.292

>  <BIOSOLVEIT.MOLECULE_CHECKSUM>
OC45MTM4NDsw

>  <BIOSOLVEIT.TORSION_QUALITY range: red, yellow, green, not rotatable>
green

>  <BIOSOLVEIT.TPSA>
72.7

$$$$
