Z1203922336.****
 OpenBabel12172121453D
Hydescorer 1.1.2 b8048283
 41 42  0  0  0  0  0  0  0  0999 V2000
   -0.7844  -14.4256    3.0995 C   0  0  0  0  0  0  0  0  0  0  0  0
   -1.5743  -13.4122    3.6349 C   0  0  0  0  0  0  0  0  0  0  0  0
   -2.9653  -13.4661    3.5361 C   0  0  0  0  0  0  0  0  0  0  0  0
   -3.5508  -14.5658    2.8873 C   0  0  0  0  0  0  0  0  0  0  0  0
   -2.7675  -15.5890    2.3521 C   0  0  0  0  0  0  0  0  0  0  0  0
   -1.3818  -15.5127    2.4594 C   0  0  0  0  0  0  0  0  0  0  0  0
   -0.3900  -16.7727    1.8037 Cl  0  0  0  0  0  0  0  0  0  0  0  0
   -3.8028  -12.3430    4.1233 C   0  0  0  0  0  0  0  0  0  0  0  0
   -4.9669  -14.6268    2.8198 N   0  0  0  0  0  0  0  0  0  0  0  0
   -5.7862  -15.5863    3.3583 C   0  0  0  0  0  0  0  0  0  0  0  0
   -7.2843  -15.3958    3.1274 C   0  0  1  0  0  0  0  0  0  0  0  0
   -5.3186  -16.5486    3.9325 O   0  0  0  0  0  0  0  0  0  0  0  0
   -7.7073  -14.1174    3.9030 C   0  0  0  0  0  0  0  0  0  0  0  0
   -7.5334  -15.2086    1.6096 C   0  0  0  0  0  0  0  0  0  0  0  0
   -9.0548  -14.3330    4.6221 C   0  0  0  0  0  0  0  0  0  0  0  0
   -9.4669  -13.2168    5.5867 C   0  0  0  0  0  0  0  0  0  0  0  0
  -10.9853  -13.3611    5.7331 C   0  0  0  0  0  0  0  0  0  0  0  0
  -11.4511  -14.1864    4.5279 C   0  0  0  0  0  0  0  0  0  0  0  0
  -10.2205  -14.3262    3.6337 C   0  0  0  0  0  0  0  0  0  0  0  0
    0.2116  -14.3749    3.1735 H   0  0  0  0  0  0  0  0  0  0  0  0
   -1.1406  -12.6375    4.0951 H   0  0  0  0  0  0  0  0  0  0  0  0
   -3.1970  -16.3687    1.8964 H   0  0  0  0  0  0  0  0  0  0  0  0
   -4.7721  -12.5341    3.9685 H   0  0  0  0  0  0  0  0  0  0  0  0
   -3.6290  -12.2762    5.1058 H   0  0  0  0  0  0  0  0  0  0  0  0
   -3.5587  -11.4794    3.6821 H   0  0  0  0  0  0  0  0  0  0  0  0
   -5.4191  -13.8860    2.3231 H   0  0  0  0  0  0  0  0  0  0  0  0
   -7.7902  -16.1892    3.4659 H   0  0  0  0  0  0  0  0  0  0  0  0
   -7.7975  -13.3580    3.2586 H   0  0  0  0  0  0  0  0  0  0  0  0
   -7.0055  -13.8979    4.5806 H   0  0  0  0  0  0  0  0  0  0  0  0
   -8.5118  -15.0828    1.4455 H   0  0  0  0  0  0  0  0  0  0  0  0
   -7.0351  -14.4039    1.2868 H   0  0  0  0  0  0  0  0  0  0  0  0
   -7.2142  -16.0183    1.1171 H   0  0  0  0  0  0  0  0  0  0  0  0
   -9.0364  -15.2056    5.1102 H   0  0  0  0  0  0  0  0  0  0  0  0
   -9.2336  -12.3210    5.2080 H   0  0  0  0  0  0  0  0  0  0  0  0
   -9.0157  -13.3323    6.4715 H   0  0  0  0  0  0  0  0  0  0  0  0
  -11.4217  -12.4614    5.7274 H   0  0  0  0  0  0  0  0  0  0  0  0
  -11.2084  -13.8344    6.5852 H   0  0  0  0  0  0  0  0  0  0  0  0
  -12.1852  -13.7124    4.0418 H   0  0  0  0  0  0  0  0  0  0  0  0
  -11.7733  -15.0859    4.8231 H   0  0  0  0  0  0  0  0  0  0  0  0
  -10.2523  -15.1798    3.1137 H   0  0  0  0  0  0  0  0  0  0  0  0
  -10.1485  -13.5538    3.0025 H   0  0  0  0  0  0  0  0  0  0  0  0
  1  2  2  0  0  0  0
  1  6  1  0  0  0  0
  1 20  1  0  0  0  0
  2  3  1  0  0  0  0
  2 21  1  0  0  0  0
  3  4  2  0  0  0  0
  3  8  1  0  0  0  0
  4  5  1  0  0  0  0
  4  9  1  0  0  0  0
  5  6  2  0  0  0  0
  5 22  1  0  0  0  0
  6  7  1  0  0  0  0
  8 23  1  0  0  0  0
  8 24  1  0  0  0  0
  8 25  1  0  0  0  0
  9 10  1  0  0  0  0
  9 26  1  0  0  0  0
 10 11  1  0  0  0  0
 10 12  2  0  0  0  0
 11 13  1  0  0  0  0
 11 14  1  0  0  0  0
 11 27  1  1  0  0  0
 13 15  1  0  0  0  0
 13 28  1  0  0  0  0
 13 29  1  0  0  0  0
 14 30  1  0  0  0  0
 14 31  1  0  0  0  0
 14 32  1  0  0  0  0
 15 16  1  0  0  0  0
 15 19  1  0  0  0  0
 15 33  1  0  0  0  0
 16 17  1  0  0  0  0
 16 34  1  0  0  0  0
 16 35  1  0  0  0  0
 17 18  1  0  0  0  0
 17 36  1  0  0  0  0
 17 37  1  0  0  0  0
 18 19  1  0  0  0  0
 18 38  1  0  0  0  0
 18 39  1  0  0  0  0
 19 40  1  0  0  0  0
 19 41  1  0  0  0  0
M  END
>  <BIOSOLVEIT.HYDE_ESTIMATED_AFFINITY_LOWER_BOUNDARY [nM]>
1735480858.427461

>  <BIOSOLVEIT.HYDE_ESTIMATED_AFFINITY_UPPER_BOUNDARY [nM]>
172430284259.668945

>  <BIOSOLVEIT.HYDE_LIGAND_EFFICIENCY range: ++, +, 0, -, -->
--

>  <BIOSOLVEIT.HYDE_LIGAND_LIPOPHILIC_EFFICIENCY range: ++, +, 0, -, -->
--

>  <BIOSOLVEIT.INTER_CLASH range: red, yellow, green>
green

>  <BIOSOLVEIT.INTRA_CLASH range: red, yellow, green>
green

>  <BIOSOLVEIT.LOGP>
4.80332

>  <BIOSOLVEIT.MOLECULAR WEIGHT>
279.809

>  <BIOSOLVEIT.MOLECULE_CHECKSUM>
Ny4wNjY2MTsw

>  <BIOSOLVEIT.TORSION_QUALITY range: red, yellow, green, not rotatable>
yellow

>  <BIOSOLVEIT.TPSA>
29.1

$$$$
