PV-001799426692.****
 OpenBabel12172121453D
Hydescorer 1.1.2 b8048283
 55 58  0  0  0  0  0  0  0  0999 V2000
   -8.4861   -9.8017   -1.8669 C   0  0  0  0  0  0  0  0  0  0  0  0
   -9.8276   -9.6248   -1.5496 C   0  0  0  0  0  0  0  0  0  0  0  0
  -10.8356  -10.1029   -2.3992 C   0  0  0  0  0  0  0  0  0  0  0  0
  -10.4557  -10.7529   -3.5857 C   0  0  0  0  0  0  0  0  0  0  0  0
   -9.1132  -10.9292   -3.8980 C   0  0  0  0  0  0  0  0  0  0  0  0
   -8.1108  -10.4583   -3.0427 C   0  0  0  0  0  0  0  0  0  0  0  0
   -6.7017  -10.6469   -3.3737 C   0  0  0  0  0  0  0  0  0  0  0  0
  -12.2452   -9.9108   -2.0361 C   0  0  0  0  0  0  0  0  0  0  0  0
  -13.1315   -9.4193   -2.9630 N   0  0  0  0  0  0  0  0  0  0  0  0
  -12.6982  -10.1723   -0.9303 O   0  0  0  0  0  0  0  0  0  0  0  0
  -14.5651   -9.2067   -2.6470 C   0  0  1  0  0  0  0  0  0  0  0  0
  -14.8586   -7.7151   -2.3914 C   0  0  0  0  0  0  0  0  0  0  0  0
  -14.7317   -7.1873   -3.7525 N   0  3  1  0  0  0  0  0  0  0  0  0
  -15.5528   -8.0838   -4.5779 C   0  0  0  0  0  0  0  0  0  0  0  0
  -15.3483   -9.4713   -3.9372 C   0  0  0  0  0  0  0  0  0  0  0  0
  -15.2381   -5.8038   -3.7992 C   0  0  0  0  0  0  0  0  0  0  0  0
  -14.8949   -5.2720   -5.2053 C   0  0  0  0  0  0  0  0  0  0  0  0
  -15.7391   -4.0525   -5.5987 C   0  0  0  0  0  0  0  0  0  0  0  0
  -14.8968   -3.3414   -6.6612 C   0  0  0  0  0  0  0  0  0  0  0  0
  -13.4534   -3.8128   -6.4495 C   0  0  0  0  0  0  0  0  0  0  0  0
  -13.4823   -4.6865   -5.1952 C   0  0  0  0  0  0  0  0  0  0  0  0
   -5.7686  -10.9423   -2.3732 C   0  0  0  0  0  0  0  0  0  0  0  0
   -4.4259  -11.1234   -2.6887 C   0  0  0  0  0  0  0  0  0  0  0  0
   -3.9990  -11.0118   -4.0087 C   0  0  0  0  0  0  0  0  0  0  0  0
   -4.9166  -10.7170   -5.0121 C   0  0  0  0  0  0  0  0  0  0  0  0
   -6.2589  -10.5351   -4.6977 C   0  0  0  0  0  0  0  0  0  0  0  0
   -7.7817   -9.4555   -1.2473 H   0  0  0  0  0  0  0  0  0  0  0  0
  -10.0771   -9.1508   -0.7052 H   0  0  0  0  0  0  0  0  0  0  0  0
  -11.1583  -11.0920   -4.2113 H   0  0  0  0  0  0  0  0  0  0  0  0
   -8.8603  -11.3982   -4.7443 H   0  0  0  0  0  0  0  0  0  0  0  0
  -12.7998   -9.1976   -3.8800 H   0  0  0  0  0  0  0  0  0  0  0  0
  -14.8746   -9.7860   -1.8930 H   0  0  0  0  0  0  0  0  0  0  0  0
  -14.1880   -7.3068   -1.7721 H   0  0  0  0  0  0  0  0  0  0  0  0
  -15.7785   -7.5764   -2.0249 H   0  0  0  0  0  0  0  0  0  0  0  0
  -15.2384   -8.0807   -5.5272 H   0  0  0  0  0  0  0  0  0  0  0  0
  -16.5155   -7.8153   -4.5448 H   0  0  0  0  0  0  0  0  0  0  0  0
  -16.2300   -9.8959   -3.7314 H   0  0  0  0  0  0  0  0  0  0  0  0
  -14.8264  -10.0662   -4.5485 H   0  0  0  0  0  0  0  0  0  0  0  0
  -14.7919   -5.2468   -3.0987 H   0  0  0  0  0  0  0  0  0  0  0  0
  -16.2275   -5.7911   -3.6549 H   0  0  0  0  0  0  0  0  0  0  0  0
  -14.9753   -5.9966   -5.8897 H   0  0  0  0  0  0  0  0  0  0  0  0
  -15.8917   -3.4572   -4.8099 H   0  0  0  0  0  0  0  0  0  0  0  0
  -16.6199   -4.3376   -5.9765 H   0  0  0  0  0  0  0  0  0  0  0  0
  -14.9581   -2.3499   -6.5457 H   0  0  0  0  0  0  0  0  0  0  0  0
  -15.2119   -3.5903   -7.5770 H   0  0  0  0  0  0  0  0  0  0  0  0
  -12.8471   -3.0292   -6.3144 H   0  0  0  0  0  0  0  0  0  0  0  0
  -13.1412   -4.3439   -7.2371 H   0  0  0  0  0  0  0  0  0  0  0  0
  -12.7943   -5.4104   -5.2473 H   0  0  0  0  0  0  0  0  0  0  0  0
  -13.3278   -4.1383   -4.3734 H   0  0  0  0  0  0  0  0  0  0  0  0
   -6.0697  -11.0240   -1.4232 H   0  0  0  0  0  0  0  0  0  0  0  0
   -3.7669  -11.3338   -1.9666 H   0  0  0  0  0  0  0  0  0  0  0  0
   -3.0340  -11.1433   -4.2357 H   0  0  0  0  0  0  0  0  0  0  0  0
   -4.6104  -10.6358   -5.9606 H   0  0  0  0  0  0  0  0  0  0  0  0
   -6.9136  -10.3226   -5.4231 H   0  0  0  0  0  0  0  0  0  0  0  0
  -13.7774   -7.2182   -4.0496 H   0  0  0  0  0  0  0  0  0  0  0  0
  1  2  2  0  0  0  0
  1  6  1  0  0  0  0
  1 27  1  0  0  0  0
  2  3  1  0  0  0  0
  2 28  1  0  0  0  0
  3  4  2  0  0  0  0
  3  8  1  0  0  0  0
  4  5  1  0  0  0  0
  4 29  1  0  0  0  0
  5  6  2  0  0  0  0
  5 30  1  0  0  0  0
  6  7  1  0  0  0  0
  7 22  2  0  0  0  0
  7 26  1  0  0  0  0
  8  9  1  0  0  0  0
  8 10  2  0  0  0  0
  9 11  1  0  0  0  0
  9 31  1  0  0  0  0
 11 12  1  0  0  0  0
 11 15  1  0  0  0  0
 11 32  1  1  0  0  0
 12 13  1  0  0  0  0
 12 33  1  0  0  0  0
 12 34  1  0  0  0  0
 13 14  1  0  0  0  0
 13 16  1  0  0  0  0
 13 55  1  6  0  0  0
 14 15  1  0  0  0  0
 14 35  1  0  0  0  0
 14 36  1  0  0  0  0
 15 37  1  0  0  0  0
 15 38  1  0  0  0  0
 16 17  1  0  0  0  0
 16 39  1  0  0  0  0
 16 40  1  0  0  0  0
 17 18  1  0  0  0  0
 17 21  1  0  0  0  0
 17 41  1  0  0  0  0
 18 19  1  0  0  0  0
 18 42  1  0  0  0  0
 18 43  1  0  0  0  0
 19 20  1  0  0  0  0
 19 44  1  0  0  0  0
 19 45  1  0  0  0  0
 20 21  1  0  0  0  0
 20 46  1  0  0  0  0
 20 47  1  0  0  0  0
 21 48  1  0  0  0  0
 21 49  1  0  0  0  0
 22 23  1  0  0  0  0
 22 50  1  0  0  0  0
 23 24  2  0  0  0  0
 23 51  1  0  0  0  0
 24 25  1  0  0  0  0
 24 52  1  0  0  0  0
 25 26  2  0  0  0  0
 25 53  1  0  0  0  0
 26 54  1  0  0  0  0
M  CHG  1  13   1
M  END
>  <BIOSOLVEIT.HYDE_ESTIMATED_AFFINITY_LOWER_BOUNDARY [nM]>
8039809.416365

>  <BIOSOLVEIT.HYDE_ESTIMATED_AFFINITY_UPPER_BOUNDARY [nM]>
798802600.631153

>  <BIOSOLVEIT.HYDE_LIGAND_EFFICIENCY range: ++, +, 0, -, -->
--

>  <BIOSOLVEIT.HYDE_LIGAND_LIPOPHILIC_EFFICIENCY range: ++, +, 0, -, -->
--

>  <BIOSOLVEIT.INTER_CLASH range: red, yellow, green>
green

>  <BIOSOLVEIT.INTRA_CLASH range: red, yellow, green>
green

>  <BIOSOLVEIT.LOGP>
2.9308

>  <BIOSOLVEIT.MOLECULAR WEIGHT>
349.495

>  <BIOSOLVEIT.MOLECULE_CHECKSUM>
LTYuMjU2ODg7MC4yNDA2NDk=

>  <BIOSOLVEIT.TORSION_QUALITY range: red, yellow, green, not rotatable>
yellow

>  <BIOSOLVEIT.TPSA>
33.54

$$$$
