PV-000117880948.****
 OpenBabel12172121453D
Hydescorer 1.1.2 b8048283
 48 50  0  0  0  0  0  0  0  0999 V2000
   -6.5115  -10.9766   -1.0647 C   0  0  0  0  0  0  0  0  0  0  0  0
   -7.8622  -11.0961   -1.3749 C   0  0  0  0  0  0  0  0  0  0  0  0
   -8.3022  -10.9622   -2.7001 C   0  0  0  0  0  0  0  0  0  0  0  0
   -7.3636  -10.6716   -3.6984 C   0  0  0  0  0  0  0  0  0  0  0  0
   -6.0147  -10.5516   -3.3865 C   0  0  0  0  0  0  0  0  0  0  0  0
   -5.5872  -10.7100   -2.0713 C   0  0  0  0  0  0  0  0  0  0  0  0
   -9.7155  -11.1210   -3.0486 C   0  0  0  0  0  0  0  0  0  0  0  0
  -10.6111  -11.7099   -2.2111 N   0  0  0  0  0  0  0  0  0  0  0  0
  -10.1973  -10.8011   -4.1182 O   0  0  0  0  0  0  0  0  0  0  0  0
  -12.0380  -11.8882   -2.5242 C   0  0  1  0  0  0  0  0  0  0  0  0
  -12.7283  -12.5983   -1.3477 C   0  0  0  0  0  0  0  0  0  0  0  0
  -12.9934  -11.5138   -0.3486 N   0  3  1  0  0  0  0  0  0  0  0  0
  -12.7274  -10.2025   -1.0046 C   0  0  0  0  0  0  0  0  0  0  0  0
  -12.7093  -10.5230   -2.4995 C   0  0  0  0  0  0  0  0  0  0  0  0
  -14.4179  -11.5825    0.0483 C   0  0  0  0  0  0  0  0  0  0  0  0
  -14.5035  -12.5223    1.2714 C   0  0  0  0  0  0  0  0  0  0  0  0
  -15.1754  -13.8558    0.8698 C   0  0  0  0  0  0  0  0  0  0  0  0
  -15.3937  -14.7482    2.0996 C   0  0  0  0  0  0  0  0  0  0  0  0
  -16.2207  -14.0236    3.1703 C   0  0  0  0  0  0  0  0  0  0  0  0
  -15.5636  -12.6960    3.5676 C   0  0  0  0  0  0  0  0  0  0  0  0
  -15.3510  -11.8017    2.3380 C   0  0  0  0  0  0  0  0  0  0  0  0
   -6.2044  -11.0822   -0.1189 H   0  0  0  0  0  0  0  0  0  0  0  0
   -8.5242  -11.2788   -0.6480 H   0  0  0  0  0  0  0  0  0  0  0  0
   -7.6668  -10.5494   -4.6435 H   0  0  0  0  0  0  0  0  0  0  0  0
   -5.3510  -10.3513   -4.1071 H   0  0  0  0  0  0  0  0  0  0  0  0
   -4.6153  -10.6322   -1.8492 H   0  0  0  0  0  0  0  0  0  0  0  0
  -10.2794  -12.0423   -1.3283 H   0  0  0  0  0  0  0  0  0  0  0  0
  -12.1797  -12.3654   -3.3915 H   0  0  0  0  0  0  0  0  0  0  0  0
  -12.1293  -13.2976   -0.9579 H   0  0  0  0  0  0  0  0  0  0  0  0
  -13.5847  -13.0207   -1.6447 H   0  0  0  0  0  0  0  0  0  0  0  0
  -11.8460   -9.8323   -0.7112 H   0  0  0  0  0  0  0  0  0  0  0  0
  -13.4519   -9.5468   -0.7918 H   0  0  0  0  0  0  0  0  0  0  0  0
  -13.6360  -10.5673   -2.8726 H   0  0  0  0  0  0  0  0  0  0  0  0
  -12.1768   -9.8472   -3.0093 H   0  0  0  0  0  0  0  0  0  0  0  0
  -14.9664  -11.9476   -0.7040 H   0  0  0  0  0  0  0  0  0  0  0  0
  -14.7505  -10.6714    0.2917 H   0  0  0  0  0  0  0  0  0  0  0  0
  -13.5864  -12.6986    1.6289 H   0  0  0  0  0  0  0  0  0  0  0  0
  -14.5887  -14.3350    0.2170 H   0  0  0  0  0  0  0  0  0  0  0  0
  -16.0593  -13.6624    0.4440 H   0  0  0  0  0  0  0  0  0  0  0  0
  -14.5048  -14.9952    2.4855 H   0  0  0  0  0  0  0  0  0  0  0  0
  -15.8774  -15.5774    1.8194 H   0  0  0  0  0  0  0  0  0  0  0  0
  -16.2926  -14.6076    3.9788 H   0  0  0  0  0  0  0  0  0  0  0  0
  -17.1349  -13.8406    2.8088 H   0  0  0  0  0  0  0  0  0  0  0  0
  -14.6784  -12.8832    3.9935 H   0  0  0  0  0  0  0  0  0  0  0  0
  -16.1537  -12.2208    4.2202 H   0  0  0  0  0  0  0  0  0  0  0  0
  -16.2408  -11.5679    1.9457 H   0  0  0  0  0  0  0  0  0  0  0  0
  -14.8806  -10.9652    2.6192 H   0  0  0  0  0  0  0  0  0  0  0  0
  -12.4044  -11.6274    0.4514 H   0  0  0  0  0  0  0  0  0  0  0  0
  1  2  2  0  0  0  0
  1  6  1  0  0  0  0
  1 22  1  0  0  0  0
  2  3  1  0  0  0  0
  2 23  1  0  0  0  0
  3  4  2  0  0  0  0
  3  7  1  0  0  0  0
  4  5  1  0  0  0  0
  4 24  1  0  0  0  0
  5  6  2  0  0  0  0
  5 25  1  0  0  0  0
  6 26  1  0  0  0  0
  7  8  1  0  0  0  0
  7  9  2  0  0  0  0
  8 10  1  0  0  0  0
  8 27  1  0  0  0  0
 10 11  1  0  0  0  0
 10 14  1  0  0  0  0
 10 28  1  6  0  0  0
 11 12  1  0  0  0  0
 11 29  1  0  0  0  0
 11 30  1  0  0  0  0
 12 13  1  0  0  0  0
 12 15  1  0  0  0  0
 12 48  1  1  0  0  0
 13 14  1  0  0  0  0
 13 31  1  0  0  0  0
 13 32  1  0  0  0  0
 14 33  1  0  0  0  0
 14 34  1  0  0  0  0
 15 16  1  0  0  0  0
 15 35  1  0  0  0  0
 15 36  1  0  0  0  0
 16 17  1  0  0  0  0
 16 21  1  0  0  0  0
 16 37  1  0  0  0  0
 17 18  1  0  0  0  0
 17 38  1  0  0  0  0
 17 39  1  0  0  0  0
 18 19  1  0  0  0  0
 18 40  1  0  0  0  0
 18 41  1  0  0  0  0
 19 20  1  0  0  0  0
 19 42  1  0  0  0  0
 19 43  1  0  0  0  0
 20 21  1  0  0  0  0
 20 44  1  0  0  0  0
 20 45  1  0  0  0  0
 21 46  1  0  0  0  0
 21 47  1  0  0  0  0
M  CHG  1  12   1
M  END
>  <BIOSOLVEIT.HYDE_ESTIMATED_AFFINITY_LOWER_BOUNDARY [nM]>
1833829.614102

>  <BIOSOLVEIT.HYDE_ESTIMATED_AFFINITY_UPPER_BOUNDARY [nM]>
182201814.619788

>  <BIOSOLVEIT.HYDE_LIGAND_EFFICIENCY range: ++, +, 0, -, -->
--

>  <BIOSOLVEIT.HYDE_LIGAND_LIPOPHILIC_EFFICIENCY range: ++, +, 0, -, -->
--

>  <BIOSOLVEIT.INTER_CLASH range: red, yellow, green>
green

>  <BIOSOLVEIT.INTRA_CLASH range: red, yellow, green>
green

>  <BIOSOLVEIT.LOGP>
1.6539

>  <BIOSOLVEIT.MOLECULAR WEIGHT>
287.424

>  <BIOSOLVEIT.MOLECULE_CHECKSUM>
LTkuOTIwNzc7MC40NzI0MTg=

>  <BIOSOLVEIT.TORSION_QUALITY range: red, yellow, green, not rotatable>
yellow

>  <BIOSOLVEIT.TPSA>
33.54

$$$$
