Z1315931726.****
 OpenBabel12172121453D
Hydescorer 1.1.2 b8048283
 37 38  0  0  0  0  0  0  0  0999 V2000
   -2.1460  -17.0034   -6.4081 C   0  0  0  0  0  0  0  0  0  0  0  0
   -1.1288  -16.0548   -6.4904 C   0  0  0  0  0  0  0  0  0  0  0  0
   -1.3524  -14.7359   -6.1058 C   0  0  0  0  0  0  0  0  0  0  0  0
   -2.6220  -14.3899   -5.6298 C   0  0  0  0  0  0  0  0  0  0  0  0
   -3.6383  -15.3388   -5.5160 C   0  0  0  0  0  0  0  0  0  0  0  0
   -3.4162  -16.6555   -5.9285 C   0  0  0  0  0  0  0  0  0  0  0  0
   -4.5320  -17.7033   -5.8408 C   0  0  0  0  0  0  0  0  0  0  0  0
   -5.1362  -17.8543   -7.0373 F   0  0  0  0  0  0  0  0  0  0  0  0
   -4.0356  -18.8934   -5.4546 F   0  0  0  0  0  0  0  0  0  0  0  0
   -5.4447  -17.3004   -4.9421 F   0  0  0  0  0  0  0  0  0  0  0  0
   -0.2336  -13.7135   -6.2154 C   0  0  0  0  0  0  0  0  0  0  0  0
   -2.8771  -13.0546   -5.2574 N   0  0  0  0  0  0  0  0  0  0  0  0
   -3.8045  -12.2139   -5.8064 C   0  0  0  0  0  0  0  0  0  0  0  0
   -4.0066  -10.7683   -5.3275 C   0  0  0  0  0  0  0  0  0  0  0  0
   -3.9085  -10.7012   -3.8366 N   0  0  0  0  0  0  0  0  0  0  0  0
   -5.0965  -10.7907   -3.1055 C   0  0  0  0  0  0  0  0  0  0  0  0
   -5.0312  -11.2847   -1.8049 C   0  0  0  0  0  0  0  0  0  0  0  0
   -6.1900  -11.3381   -1.0354 C   0  0  0  0  0  0  0  0  0  0  0  0
   -7.4119  -10.9186   -1.5667 C   0  0  0  0  0  0  0  0  0  0  0  0
   -7.4726  -10.4509   -2.8767 C   0  0  0  0  0  0  0  0  0  0  0  0
   -6.3197  -10.3906   -3.6533 C   0  0  0  0  0  0  0  0  0  0  0  0
   -6.1141  -11.9161    0.5967 Cl  0  0  0  0  0  0  0  0  0  0  0  0
   -4.4823  -12.7075   -6.6803 O   0  0  0  0  0  0  0  0  0  0  0  0
   -1.9675  -17.9446   -6.6950 H   0  0  0  0  0  0  0  0  0  0  0  0
   -0.2277  -16.3246   -6.8297 H   0  0  0  0  0  0  0  0  0  0  0  0
   -4.5266  -15.0766   -5.1390 H   0  0  0  0  0  0  0  0  0  0  0  0
   -0.5631  -12.8237   -5.8996 H   0  0  0  0  0  0  0  0  0  0  0  0
    0.5389  -14.0028   -5.6501 H   0  0  0  0  0  0  0  0  0  0  0  0
    0.0596  -13.6411   -7.1688 H   0  0  0  0  0  0  0  0  0  0  0  0
   -2.3214  -12.6834   -4.5136 H   0  0  0  0  0  0  0  0  0  0  0  0
   -4.9096  -10.4483   -5.6141 H   0  0  0  0  0  0  0  0  0  0  0  0
   -3.3023  -10.1847   -5.7318 H   0  0  0  0  0  0  0  0  0  0  0  0
   -3.0252  -10.5963   -3.3795 H   0  0  0  0  0  0  0  0  0  0  0  0
   -4.1599  -11.5982   -1.4273 H   0  0  0  0  0  0  0  0  0  0  0  0
   -8.2404  -10.9541   -1.0079 H   0  0  0  0  0  0  0  0  0  0  0  0
   -8.3479  -10.1571   -3.2607 H   0  0  0  0  0  0  0  0  0  0  0  0
   -6.3653  -10.0634   -4.5972 H   0  0  0  0  0  0  0  0  0  0  0  0
  1  2  2  0  0  0  0
  1  6  1  0  0  0  0
  1 24  1  0  0  0  0
  2  3  1  0  0  0  0
  2 25  1  0  0  0  0
  3  4  2  0  0  0  0
  3 11  1  0  0  0  0
  4  5  1  0  0  0  0
  4 12  1  0  0  0  0
  5  6  2  0  0  0  0
  5 26  1  0  0  0  0
  6  7  1  0  0  0  0
  7  8  1  0  0  0  0
  7  9  1  0  0  0  0
  7 10  1  0  0  0  0
 11 27  1  0  0  0  0
 11 28  1  0  0  0  0
 11 29  1  0  0  0  0
 12 13  1  0  0  0  0
 12 30  1  0  0  0  0
 13 14  1  0  0  0  0
 13 23  2  0  0  0  0
 14 15  1  0  0  0  0
 14 31  1  0  0  0  0
 14 32  1  0  0  0  0
 15 16  1  0  0  0  0
 15 33  1  0  0  0  0
 16 17  2  0  0  0  0
 16 21  1  0  0  0  0
 17 18  1  0  0  0  0
 17 34  1  0  0  0  0
 18 19  2  0  0  0  0
 18 22  1  0  0  0  0
 19 20  1  0  0  0  0
 19 35  1  0  0  0  0
 20 21  2  0  0  0  0
 20 36  1  0  0  0  0
 21 37  1  0  0  0  0
M  END
>  <BIOSOLVEIT.HYDE_ESTIMATED_AFFINITY_LOWER_BOUNDARY [nM]>
112915258.830249

>  <BIOSOLVEIT.HYDE_ESTIMATED_AFFINITY_UPPER_BOUNDARY [nM]>
11218798572.630692

>  <BIOSOLVEIT.HYDE_LIGAND_EFFICIENCY range: ++, +, 0, -, -->
--

>  <BIOSOLVEIT.HYDE_LIGAND_LIPOPHILIC_EFFICIENCY range: ++, +, 0, -, -->
--

>  <BIOSOLVEIT.INTER_CLASH range: red, yellow, green>
green

>  <BIOSOLVEIT.INTRA_CLASH range: red, yellow, green>
green

>  <BIOSOLVEIT.LOGP>
4.71782

>  <BIOSOLVEIT.MOLECULAR WEIGHT>
342.747

>  <BIOSOLVEIT.MOLECULE_CHECKSUM>
MC4yOTMxMDM7MA==

>  <BIOSOLVEIT.TORSION_QUALITY range: red, yellow, green, not rotatable>
green

>  <BIOSOLVEIT.TPSA>
41.13

$$$$
