G2.****
 OpenBabel12172121453D
Hydescorer 1.1.2 b8048283
 64 66  0  0  0  0  0  0  0  0999 V2000
   -1.8245  -13.8474   -6.7578 C   0  0  0  0  0  0  0  0  0  0  0  0
   -1.1569  -13.0041   -5.8731 C   0  0  0  0  0  0  0  0  0  0  0  0
   -1.8595  -12.0317   -5.1666 C   0  0  0  0  0  0  0  0  0  0  0  0
   -3.2389  -11.9047   -5.3547 C   0  0  0  0  0  0  0  0  0  0  0  0
   -3.9186  -12.7515   -6.2271 C   0  0  0  0  0  0  0  0  0  0  0  0
   -3.2061  -13.7190   -6.9315 C   0  0  0  0  0  0  0  0  0  0  0  0
   -4.0365  -14.7670   -8.0335 Cl  0  0  0  0  0  0  0  0  0  0  0  0
   -3.9685  -10.9341   -4.6642 N   0  0  0  0  0  0  0  0  0  0  0  0
   -3.8681  -10.9488   -3.2051 C   0  0  0  0  0  0  0  0  0  0  0  0
   -5.3076  -10.9178   -2.7407 C   0  0  0  0  0  0  0  0  0  0  0  0
   -5.7708  -10.8627   -1.4527 C   0  0  0  0  0  0  0  0  0  0  0  0
   -7.1670  -10.8217   -1.3710 C   0  0  0  0  0  0  0  0  0  0  0  0
   -7.7869  -10.8363   -2.6033 C   0  0  0  0  0  0  0  0  0  0  0  0
   -6.6095  -10.9209   -3.8756 S   0  0  0  0  0  0  0  0  0  0  0  0
   -9.2066  -10.7719   -2.9077 C   0  0  0  0  0  0  0  0  0  0  0  0
  -10.1034  -10.9464   -1.8943 N   0  0  0  0  0  0  0  0  0  0  0  0
   -9.6664  -10.5347   -4.0227 O   0  0  0  0  0  0  0  0  0  0  0  0
  -11.5630  -10.8935   -2.1328 C   0  0  2  0  0  0  0  0  0  0  0  0
  -12.2919  -11.1470   -0.7970 C   0  0  0  0  0  0  0  0  0  0  0  0
  -11.9143  -12.0110   -3.1477 C   0  0  0  0  0  0  0  0  0  0  0  0
  -12.9973  -11.5340   -4.1457 C   0  0  0  0  0  0  0  0  0  0  0  0
  -12.7647  -10.0364   -4.4255 C   0  0  0  0  0  0  0  0  0  0  0  0
  -13.7896   -9.4804   -5.4235 C   0  0  0  0  0  0  0  0  0  0  0  0
  -13.7534  -10.2694   -6.7381 C   0  0  0  0  0  0  0  0  0  0  0  0
  -13.9900  -11.7622   -6.4785 C   0  0  0  0  0  0  0  0  0  0  0  0
  -12.9707  -12.3193   -5.4747 C   0  0  0  0  0  0  0  0  0  0  0  0
  -11.7891  -11.7627    0.1400 O   0  0  0  0  0  0  0  0  0  0  0  0
  -13.4992  -10.5871   -0.6661 N   0  0  0  0  0  0  0  0  0  0  0  0
  -14.3456  -10.7088    0.5182 C   0  0  0  0  0  0  0  0  0  0  0  0
  -15.1450  -12.0119    0.4605 C   0  0  0  0  0  0  0  0  0  0  0  0
  -16.0405  -12.0662    1.5610 O   0  0  0  0  0  0  0  0  0  0  0  0
  -15.3827  -11.8965    2.8070 C   0  0  0  0  0  0  0  0  0  0  0  0
   -1.3174  -14.5426   -7.2673 H   0  0  0  0  0  0  0  0  0  0  0  0
   -0.1696  -13.0974   -5.7448 H   0  0  0  0  0  0  0  0  0  0  0  0
   -1.3806  -11.4282   -4.5290 H   0  0  0  0  0  0  0  0  0  0  0  0
   -4.9077  -12.6657   -6.3465 H   0  0  0  0  0  0  0  0  0  0  0  0
   -4.5322  -10.2619   -5.1442 H   0  0  0  0  0  0  0  0  0  0  0  0
   -3.3705  -10.1468   -2.8748 H   0  0  0  0  0  0  0  0  0  0  0  0
   -3.4099  -11.7793   -2.8884 H   0  0  0  0  0  0  0  0  0  0  0  0
   -5.1719  -10.8528   -0.6520 H   0  0  0  0  0  0  0  0  0  0  0  0
   -7.6661  -10.7853   -0.5052 H   0  0  0  0  0  0  0  0  0  0  0  0
   -9.7662  -11.1140   -0.9679 H   0  0  0  0  0  0  0  0  0  0  0  0
  -11.8198  -10.0000   -2.5013 H   0  0  0  0  0  0  0  0  0  0  0  0
  -12.2563  -12.8084   -2.6506 H   0  0  0  0  0  0  0  0  0  0  0  0
  -11.0902  -12.2627   -3.6552 H   0  0  0  0  0  0  0  0  0  0  0  0
  -13.8965  -11.6467   -3.7231 H   0  0  0  0  0  0  0  0  0  0  0  0
  -11.8465   -9.9159   -4.8028 H   0  0  0  0  0  0  0  0  0  0  0  0
  -12.8412   -9.5303   -3.5664 H   0  0  0  0  0  0  0  0  0  0  0  0
  -13.5778   -8.5212   -5.6109 H   0  0  0  0  0  0  0  0  0  0  0  0
  -14.7046   -9.5482   -5.0257 H   0  0  0  0  0  0  0  0  0  0  0  0
  -12.8593  -10.1485   -7.1693 H   0  0  0  0  0  0  0  0  0  0  0  0
  -14.4669   -9.9248   -7.3480 H   0  0  0  0  0  0  0  0  0  0  0  0
  -13.9044  -12.2608   -7.3410 H   0  0  0  0  0  0  0  0  0  0  0  0
  -14.9116  -11.8873   -6.1111 H   0  0  0  0  0  0  0  0  0  0  0  0
  -13.1873  -13.2779   -5.2899 H   0  0  0  0  0  0  0  0  0  0  0  0
  -12.0552  -12.2549   -5.8718 H   0  0  0  0  0  0  0  0  0  0  0  0
  -13.8469  -10.0472   -1.4326 H   0  0  0  0  0  0  0  0  0  0  0  0
  -14.9773   -9.9344    0.5544 H   0  0  0  0  0  0  0  0  0  0  0  0
  -13.7712  -10.7090    1.3369 H   0  0  0  0  0  0  0  0  0  0  0  0
  -14.5181  -12.7898    0.5021 H   0  0  0  0  0  0  0  0  0  0  0  0
  -15.6639  -12.0472   -0.3936 H   0  0  0  0  0  0  0  0  0  0  0  0
  -16.0537  -11.9425    3.5471 H   0  0  0  0  0  0  0  0  0  0  0  0
  -14.7039  -12.6210    2.9270 H   0  0  0  0  0  0  0  0  0  0  0  0
  -14.9270  -11.0066    2.8250 H   0  0  0  0  0  0  0  0  0  0  0  0
  1  2  2  0  0  0  0
  1  6  1  0  0  0  0
  1 33  1  0  0  0  0
  2  3  1  0  0  0  0
  2 34  1  0  0  0  0
  3  4  2  0  0  0  0
  3 35  1  0  0  0  0
  4  5  1  0  0  0  0
  4  8  1  0  0  0  0
  5  6  2  0  0  0  0
  5 36  1  0  0  0  0
  6  7  1  0  0  0  0
  8  9  1  0  0  0  0
  8 37  1  0  0  0  0
  9 10  1  0  0  0  0
  9 38  1  0  0  0  0
  9 39  1  0  0  0  0
 10 11  2  0  0  0  0
 10 14  1  0  0  0  0
 11 12  1  0  0  0  0
 11 40  1  0  0  0  0
 12 13  2  0  0  0  0
 12 41  1  0  0  0  0
 13 14  1  0  0  0  0
 13 15  1  0  0  0  0
 15 16  1  0  0  0  0
 15 17  2  0  0  0  0
 16 18  1  0  0  0  0
 16 42  1  0  0  0  0
 18 19  1  0  0  0  0
 18 20  1  0  0  0  0
 18 43  1  6  0  0  0
 19 27  2  0  0  0  0
 19 28  1  0  0  0  0
 20 21  1  0  0  0  0
 20 44  1  0  0  0  0
 20 45  1  0  0  0  0
 21 22  1  0  0  0  0
 21 26  1  0  0  0  0
 21 46  1  0  0  0  0
 22 23  1  0  0  0  0
 22 47  1  0  0  0  0
 22 48  1  0  0  0  0
 23 24  1  0  0  0  0
 23 49  1  0  0  0  0
 23 50  1  0  0  0  0
 24 25  1  0  0  0  0
 24 51  1  0  0  0  0
 24 52  1  0  0  0  0
 25 26  1  0  0  0  0
 25 53  1  0  0  0  0
 25 54  1  0  0  0  0
 26 55  1  0  0  0  0
 26 56  1  0  0  0  0
 28 29  1  0  0  0  0
 28 57  1  0  0  0  0
 29 30  1  0  0  0  0
 29 58  1  0  0  0  0
 29 59  1  0  0  0  0
 30 31  1  0  0  0  0
 30 60  1  0  0  0  0
 30 61  1  0  0  0  0
 31 32  1  0  0  0  0
 32 62  1  0  0  0  0
 32 63  1  0  0  0  0
 32 64  1  0  0  0  0
M  END
>  <BIOSOLVEIT.HYDE_ESTIMATED_AFFINITY_LOWER_BOUNDARY [nM]>
520989.383158

>  <BIOSOLVEIT.HYDE_ESTIMATED_AFFINITY_UPPER_BOUNDARY [nM]>
51763375.549793

>  <BIOSOLVEIT.HYDE_LIGAND_EFFICIENCY range: ++, +, 0, -, -->
--

>  <BIOSOLVEIT.HYDE_LIGAND_LIPOPHILIC_EFFICIENCY range: ++, +, 0, -, -->
--

>  <BIOSOLVEIT.INTER_CLASH range: red, yellow, green>
green

>  <BIOSOLVEIT.INTRA_CLASH range: red, yellow, green>
yellow

>  <BIOSOLVEIT.LOGP>
4.845

>  <BIOSOLVEIT.MOLECULAR WEIGHT>
478.053

>  <BIOSOLVEIT.MOLECULE_CHECKSUM>
LTEzLjA0MDQ7MC40MDc1MTI=

>  <BIOSOLVEIT.TORSION_QUALITY range: red, yellow, green, not rotatable>
red

>  <BIOSOLVEIT.TPSA>
79.46

$$$$
