Z297324774.****
 OpenBabel12172121453D
Hydescorer 1.1.2 b8048283
 36 37  0  0  0  0  0  0  0  0999 V2000
   -0.6094  -16.0966    6.3868 C   0  0  0  0  0  0  0  0  0  0  0  0
   -0.4606  -16.7782    7.5875 C   0  0  0  0  0  0  0  0  0  0  0  0
   -0.1297  -16.1322    8.7704 C   0  0  0  0  0  0  0  0  0  0  0  0
    0.0536  -14.7526    8.7482 C   0  0  0  0  0  0  0  0  0  0  0  0
   -0.0952  -14.0479    7.5525 C   0  0  0  0  0  0  0  0  0  0  0  0
   -0.4259  -14.7128    6.3662 C   0  0  0  0  0  0  0  0  0  0  0  0
   -0.6452  -18.1186    7.6067 F   0  0  0  0  0  0  0  0  0  0  0  0
   -0.5785  -13.9399    5.0642 C   0  0  0  0  0  0  0  0  0  0  0  0
   -2.0080  -13.4430    4.9773 C   0  0  0  0  0  0  0  0  0  0  0  0
   -2.9564  -14.3248    4.5252 N   0  0  0  0  0  0  0  0  0  0  0  0
   -2.3019  -12.2996    5.2518 O   0  0  0  0  0  0  0  0  0  0  0  0
   -4.3520  -14.0985    4.3562 C   0  0  0  0  0  0  0  0  0  0  0  0
   -4.7646  -13.1938    3.3692 C   0  0  0  0  0  0  0  0  0  0  0  0
   -6.1084  -12.9133    3.1482 C   0  0  0  0  0  0  0  0  0  0  0  0
   -7.0702  -13.5599    3.9221 C   0  0  0  0  0  0  0  0  0  0  0  0
   -6.6654  -14.4832    4.8939 C   0  0  0  0  0  0  0  0  0  0  0  0
   -5.3135  -14.7628    5.1211 C   0  0  0  0  0  0  0  0  0  0  0  0
   -3.8419  -12.5680    2.6046 F   0  0  0  0  0  0  0  0  0  0  0  0
   -7.6737  -15.1098    5.6609 N   0  0  0  0  0  0  0  0  0  0  0  0
   -8.3280  -14.5584    6.7269 C   0  0  0  0  0  0  0  0  0  0  0  0
   -9.3675  -15.4173    7.3914 C   0  0  0  0  0  0  0  0  0  0  0  0
   -8.0552  -13.4476    7.1218 O   0  0  0  0  0  0  0  0  0  0  0  0
   -0.8445  -16.5898    5.5492 H   0  0  0  0  0  0  0  0  0  0  0  0
   -0.0251  -16.6473    9.6212 H   0  0  0  0  0  0  0  0  0  0  0  0
    0.2920  -14.2663    9.5888 H   0  0  0  0  0  0  0  0  0  0  0  0
    0.0360  -13.0566    7.5434 H   0  0  0  0  0  0  0  0  0  0  0  0
   -0.3802  -14.5393    4.2887 H   0  0  0  0  0  0  0  0  0  0  0  0
    0.0515  -13.1635    5.0549 H   0  0  0  0  0  0  0  0  0  0  0  0
   -2.6276  -15.2382    4.2851 H   0  0  0  0  0  0  0  0  0  0  0  0
   -6.3807  -12.2572    2.4443 H   0  0  0  0  0  0  0  0  0  0  0  0
   -8.0415  -13.3662    3.7846 H   0  0  0  0  0  0  0  0  0  0  0  0
   -5.0406  -15.4258    5.8181 H   0  0  0  0  0  0  0  0  0  0  0  0
   -7.9316  -16.0402    5.4004 H   0  0  0  0  0  0  0  0  0  0  0  0
   -9.7778  -14.9152    8.1526 H   0  0  0  0  0  0  0  0  0  0  0  0
  -10.0769  -15.6552    6.7280 H   0  0  0  0  0  0  0  0  0  0  0  0
   -8.9392  -16.2528    7.7355 H   0  0  0  0  0  0  0  0  0  0  0  0
  1  2  2  0  0  0  0
  1  6  1  0  0  0  0
  1 23  1  0  0  0  0
  2  3  1  0  0  0  0
  2  7  1  0  0  0  0
  3  4  2  0  0  0  0
  3 24  1  0  0  0  0
  4  5  1  0  0  0  0
  4 25  1  0  0  0  0
  5  6  2  0  0  0  0
  5 26  1  0  0  0  0
  6  8  1  0  0  0  0
  8  9  1  0  0  0  0
  8 27  1  0  0  0  0
  8 28  1  0  0  0  0
  9 10  1  0  0  0  0
  9 11  2  0  0  0  0
 10 12  1  0  0  0  0
 10 29  1  0  0  0  0
 12 13  2  0  0  0  0
 12 17  1  0  0  0  0
 13 14  1  0  0  0  0
 13 18  1  0  0  0  0
 14 15  2  0  0  0  0
 14 30  1  0  0  0  0
 15 16  1  0  0  0  0
 15 31  1  0  0  0  0
 16 17  2  0  0  0  0
 16 19  1  0  0  0  0
 17 32  1  0  0  0  0
 19 20  1  0  0  0  0
 19 33  1  0  0  0  0
 20 21  1  0  0  0  0
 20 22  2  0  0  0  0
 21 34  1  0  0  0  0
 21 35  1  0  0  0  0
 21 36  1  0  0  0  0
M  END
>  <BIOSOLVEIT.HYDE_ESTIMATED_AFFINITY_LOWER_BOUNDARY [nM]>
7503050862.081397

>  <BIOSOLVEIT.HYDE_ESTIMATED_AFFINITY_UPPER_BOUNDARY [nM]>
745472464695.308472

>  <BIOSOLVEIT.HYDE_LIGAND_EFFICIENCY range: ++, +, 0, -, -->
--

>  <BIOSOLVEIT.HYDE_LIGAND_LIPOPHILIC_EFFICIENCY range: ++, +, 0, -, -->
--

>  <BIOSOLVEIT.INTER_CLASH range: red, yellow, green>
green

>  <BIOSOLVEIT.INTRA_CLASH range: red, yellow, green>
green

>  <BIOSOLVEIT.LOGP>
3.1044

>  <BIOSOLVEIT.MOLECULAR WEIGHT>
304.295

>  <BIOSOLVEIT.MOLECULE_CHECKSUM>
MTAuNjk1OTsw

>  <BIOSOLVEIT.TORSION_QUALITY range: red, yellow, green, not rotatable>
yellow

>  <BIOSOLVEIT.TPSA>
58.2

$$$$
