G8.sdf
 OpenBabel12172121453D
Hydescorer 1.1.2 b8048283
 60 63  0  0  0  0  0  0  0  0999 V2000
   -0.2916  -15.2340    3.2539 C   0  0  0  0  0  0  0  0  0  0  0  0
   -1.1276  -14.1990    3.3669 N   0  0  0  0  0  0  0  0  0  0  0  0
   -2.3809  -14.3067    2.9218 C   0  0  0  0  0  0  0  0  0  0  0  0
   -2.8529  -15.5047    2.3412 C   0  0  0  0  0  0  0  0  0  0  0  0
   -1.9889  -16.5898    2.2065 C   0  0  0  0  0  0  0  0  0  0  0  0
   -0.6911  -16.4424    2.6759 C   0  0  0  0  0  0  0  0  0  0  0  0
    0.4317  -17.7561    2.5461 Cl  0  0  0  0  0  0  0  0  0  0  0  0
   -4.2002  -15.5880    1.9089 N   0  0  0  0  0  0  0  0  0  0  0  0
   -5.1142  -16.6652    2.3169 C   0  0  0  0  0  0  0  0  0  0  0  0
   -6.2883  -16.0381    3.0510 C   0  0  0  0  0  0  0  0  0  0  0  0
   -6.7481  -16.2242    4.3308 C   0  0  0  0  0  0  0  0  0  0  0  0
   -7.8784  -15.4535    4.6298 C   0  0  0  0  0  0  0  0  0  0  0  0
   -8.2986  -14.6687    3.5766 C   0  0  0  0  0  0  0  0  0  0  0  0
   -7.2643  -14.8955    2.2027 S   0  0  0  0  0  0  0  0  0  0  0  0
   -9.4264  -13.7533    3.5132 C   0  0  0  0  0  0  0  0  0  0  0  0
  -10.3270  -13.9050    2.4917 N   0  0  0  0  0  0  0  0  0  0  0  0
  -11.5594  -13.0975    2.2104 C   0  0  2  0  0  0  0  0  0  0  0  0
  -12.7467  -13.4849    3.1119 C   0  0  0  0  0  0  0  0  0  0  0  0
  -12.7081  -14.4873    3.8242 O   0  0  0  0  0  0  0  0  0  0  0  0
  -13.8601  -12.7026    3.1284 N   0  0  0  0  0  0  0  0  0  0  0  0
  -15.0363  -12.9647    3.9336 C   0  0  0  0  0  0  0  0  0  0  0  0
   -9.6109  -12.8462    4.3165 O   0  0  0  0  0  0  0  0  0  0  0  0
   -3.2649  -13.0882    3.0730 C   0  0  0  0  0  0  0  0  0  0  0  0
  -16.0271  -13.8752    3.2805 C   0  0  0  0  0  0  0  0  0  0  0  0
  -16.2990  -12.3920    3.3733 C   0  0  0  0  0  0  0  0  0  0  0  0
    0.6451  -15.1422    3.5917 H   0  0  0  0  0  0  0  0  0  0  0  0
   -2.2933  -17.4447    1.7864 H   0  0  0  0  0  0  0  0  0  0  0  0
   -4.5468  -14.8784    1.2954 H   0  0  0  0  0  0  0  0  0  0  0  0
   -4.6376  -17.3026    2.9224 H   0  0  0  0  0  0  0  0  0  0  0  0
   -5.4424  -17.1550    1.5091 H   0  0  0  0  0  0  0  0  0  0  0  0
   -6.3189  -16.8478    4.9842 H   0  0  0  0  0  0  0  0  0  0  0  0
   -8.3355  -15.4705    5.5191 H   0  0  0  0  0  0  0  0  0  0  0  0
  -10.1385  -14.6498    1.8515 H   0  0  0  0  0  0  0  0  0  0  0  0
  -11.9860  -13.2075    0.7206 C   0  0  0  0  0  0  0  0  0  0  0  0
  -13.8672  -11.8907    2.5446 H   0  0  0  0  0  0  0  0  0  0  0  0
  -14.9330  -13.0078    4.9273 H   0  0  0  0  0  0  0  0  0  0  0  0
   -4.1736  -13.2881    2.7065 H   0  0  0  0  0  0  0  0  0  0  0  0
   -3.3411  -12.8497    4.0412 H   0  0  0  0  0  0  0  0  0  0  0  0
   -2.8644  -12.3215    2.5713 H   0  0  0  0  0  0  0  0  0  0  0  0
  -12.9721  -14.3854    0.5215 C   0  0  0  0  0  0  0  0  0  0  0  0
  -11.1743  -13.3595    0.1568 H   0  0  0  0  0  0  0  0  0  0  0  0
  -12.4305  -12.3561    0.4423 H   0  0  0  0  0  0  0  0  0  0  0  0
  -14.2304  -13.9150   -0.2155 C   0  0  0  0  0  0  0  0  0  0  0  0
  -12.4861  -15.4805   -0.4383 C   0  0  0  0  0  0  0  0  0  0  0  0
  -12.7190  -14.9240   -1.8447 C   0  0  0  0  0  0  0  0  0  0  0  0
  -13.8626  -13.9139   -1.7026 C   0  0  0  0  0  0  0  0  0  0  0  0
  -13.2176  -14.7840    1.4051 H   0  0  0  0  0  0  0  0  0  0  0  0
  -14.4852  -12.9947    0.0815 H   0  0  0  0  0  0  0  0  0  0  0  0
  -14.9899  -14.5427   -0.0445 H   0  0  0  0  0  0  0  0  0  0  0  0
  -13.0107  -16.3211   -0.3038 H   0  0  0  0  0  0  0  0  0  0  0  0
  -11.5146  -15.6670   -0.2927 H   0  0  0  0  0  0  0  0  0  0  0  0
  -12.9775  -15.6582   -2.4726 H   0  0  0  0  0  0  0  0  0  0  0  0
  -11.8935  -14.4718   -2.1826 H   0  0  0  0  0  0  0  0  0  0  0  0
  -13.5618  -13.0037   -1.9872 H   0  0  0  0  0  0  0  0  0  0  0  0
  -14.6467  -14.1941   -2.2564 H   0  0  0  0  0  0  0  0  0  0  0  0
  -11.3412  -12.1388    2.3927 H   0  0  0  0  0  0  0  0  0  0  0  0
  -16.5579  -14.5173    3.8337 H   0  0  0  0  0  0  0  0  0  0  0  0
  -15.8175  -14.2915    2.3958 H   0  0  0  0  0  0  0  0  0  0  0  0
  -16.2696  -11.8249    2.5500 H   0  0  0  0  0  0  0  0  0  0  0  0
  -17.0101  -12.0506    3.9879 H   0  0  0  0  0  0  0  0  0  0  0  0
  1  2  2  0  0  0  0
  1  6  1  0  0  0  0
  1 26  1  0  0  0  0
  2  3  1  0  0  0  0
  3  4  2  0  0  0  0
  3 23  1  0  0  0  0
  4  5  1  0  0  0  0
  4  8  1  0  0  0  0
  5  6  2  0  0  0  0
  5 27  1  0  0  0  0
  6  7  1  0  0  0  0
  8  9  1  0  0  0  0
  8 28  1  0  0  0  0
  9 10  1  0  0  0  0
  9 29  1  0  0  0  0
  9 30  1  0  0  0  0
 10 11  2  0  0  0  0
 10 14  1  0  0  0  0
 11 12  1  0  0  0  0
 11 31  1  0  0  0  0
 12 13  2  0  0  0  0
 12 32  1  0  0  0  0
 13 14  1  0  0  0  0
 13 15  1  0  0  0  0
 15 16  1  0  0  0  0
 15 22  2  0  0  0  0
 16 17  1  0  0  0  0
 16 33  1  0  0  0  0
 17 18  1  0  0  0  0
 17 34  1  0  0  0  0
 17 56  1  1  0  0  0
 18 19  2  0  0  0  0
 18 20  1  0  0  0  0
 20 21  1  0  0  0  0
 20 35  1  0  0  0  0
 21 24  1  0  0  0  0
 21 25  1  0  0  0  0
 21 36  1  0  0  0  0
 23 37  1  0  0  0  0
 23 38  1  0  0  0  0
 23 39  1  0  0  0  0
 24 25  1  0  0  0  0
 24 57  1  0  0  0  0
 24 58  1  0  0  0  0
 25 59  1  0  0  0  0
 25 60  1  0  0  0  0
 34 40  1  0  0  0  0
 34 41  1  0  0  0  0
 34 42  1  0  0  0  0
 40 43  1  0  0  0  0
 40 44  1  0  0  0  0
 40 47  1  0  0  0  0
 43 46  1  0  0  0  0
 43 48  1  0  0  0  0
 43 49  1  0  0  0  0
 44 45  1  0  0  0  0
 44 50  1  0  0  0  0
 44 51  1  0  0  0  0
 45 46  1  0  0  0  0
 45 52  1  0  0  0  0
 45 53  1  0  0  0  0
 46 54  1  0  0  0  0
 46 55  1  0  0  0  0
M  END
>  <BIOSOLVEIT.HYDE_ESTIMATED_AFFINITY_LOWER_BOUNDARY [nM]>
315968854.385817

>  <BIOSOLVEIT.HYDE_ESTIMATED_AFFINITY_UPPER_BOUNDARY [nM]>
31393373838.946117

>  <BIOSOLVEIT.HYDE_LIGAND_EFFICIENCY range: ++, +, 0, -, -->
--

>  <BIOSOLVEIT.HYDE_LIGAND_LIPOPHILIC_EFFICIENCY range: ++, +, 0, -, -->
--

>  <BIOSOLVEIT.INTER_CLASH range: red, yellow, green>
green

>  <BIOSOLVEIT.INTRA_CLASH range: red, yellow, green>
green

>  <BIOSOLVEIT.LOGP>
4.67432

>  <BIOSOLVEIT.MOLECULAR WEIGHT>
461.026

>  <BIOSOLVEIT.MOLECULE_CHECKSUM>
Mi44NDM5Njsw

>  <BIOSOLVEIT.TORSION_QUALITY range: red, yellow, green, not rotatable>
red

>  <BIOSOLVEIT.TPSA>
83.12

$$$$
