Z200790202.****
 OpenBabel12172121453D
Hydescorer 1.1.2 b8048283
 39 41  0  0  0  0  0  0  0  0999 V2000
   -7.2621  -10.5565   -3.7276 C   0  0  0  0  0  0  0  0  0  0  0  0
   -6.5087  -10.3793   -2.5953 C   0  0  0  0  0  0  0  0  0  0  0  0
   -5.1103  -10.4945   -2.6618 N   0  0  0  0  0  0  0  0  0  0  0  0
   -4.5387  -10.7612   -3.7880 C   0  0  0  0  0  0  0  0  0  0  0  0
   -5.2786  -10.9411   -4.9529 N   0  0  0  0  0  0  0  0  0  0  0  0
   -6.6389  -10.8512   -4.9753 C   0  0  0  0  0  0  0  0  0  0  0  0
   -8.9560  -10.3745   -3.4125 S   0  0  0  0  0  0  0  0  0  0  0  0
   -8.6276  -10.0554   -1.7449 C   0  0  0  0  0  0  0  0  0  0  0  0
   -7.2883  -10.0915   -1.4643 C   0  0  0  0  0  0  0  0  0  0  0  0
   -7.1560  -11.0378   -6.0693 O   0  0  0  0  0  0  0  0  0  0  0  0
   -3.0062  -10.8875   -3.8953 C   0  0  0  0  0  0  0  0  0  0  0  0
   -2.6851  -11.9903   -4.8930 N   0  3  1  0  0  0  0  0  0  0  0  0
   -1.1982  -12.2491   -4.8578 C   0  0  0  0  0  0  0  0  0  0  0  0
   -0.8592  -13.3570   -5.9143 C   0  0  0  0  0  0  0  0  0  0  0  0
   -1.5856  -14.6330   -5.5444 N   0  3  1  0  0  0  0  0  0  0  0  0
   -3.0830  -14.3622   -5.5601 C   0  0  0  0  0  0  0  0  0  0  0  0
   -3.4221  -13.2456   -4.5119 C   0  0  0  0  0  0  0  0  0  0  0  0
   -1.2488  -15.7098   -6.6423 C   0  0  0  0  0  0  0  0  0  0  0  0
   -1.7246  -17.1653   -6.2961 C   0  0  0  0  0  0  0  0  0  0  0  0
   -0.7046  -18.0106   -6.4886 F   0  0  0  0  0  0  0  0  0  0  0  0
   -2.1375  -17.2133   -5.0363 F   0  0  0  0  0  0  0  0  0  0  0  0
   -2.7229  -17.4817   -7.1305 F   0  0  0  0  0  0  0  0  0  0  0  0
   -9.3349   -9.8663   -1.0638 H   0  0  0  0  0  0  0  0  0  0  0  0
   -6.9073   -9.9306   -0.5538 H   0  0  0  0  0  0  0  0  0  0  0  0
   -2.6229  -11.1186   -3.0011 H   0  0  0  0  0  0  0  0  0  0  0  0
   -2.6171  -10.0221   -4.2112 H   0  0  0  0  0  0  0  0  0  0  0  0
   -0.9317  -12.5605   -3.9456 H   0  0  0  0  0  0  0  0  0  0  0  0
   -0.7044  -11.4085   -5.0805 H   0  0  0  0  0  0  0  0  0  0  0  0
    0.1270  -13.5229   -5.9210 H   0  0  0  0  0  0  0  0  0  0  0  0
   -1.1525  -13.0555   -6.8216 H   0  0  0  0  0  0  0  0  0  0  0  0
   -3.5760  -15.2002   -5.3260 H   0  0  0  0  0  0  0  0  0  0  0  0
   -3.3574  -14.0578   -6.4723 H   0  0  0  0  0  0  0  0  0  0  0  0
   -4.4068  -13.0713   -4.5118 H   0  0  0  0  0  0  0  0  0  0  0  0
   -3.1357  -13.5409   -3.6004 H   0  0  0  0  0  0  0  0  0  0  0  0
   -0.2569  -15.7274   -6.7683 H   0  0  0  0  0  0  0  0  0  0  0  0
   -1.6885  -15.4326   -7.4966 H   0  0  0  0  0  0  0  0  0  0  0  0
   -2.9569  -11.7045   -5.8120 H   0  0  0  0  0  0  0  0  0  0  0  0
   -1.2968  -14.9513   -4.6415 H   0  0  0  0  0  0  0  0  0  0  0  0
   -4.5581  -10.3701   -1.8375 H   0  0  0  0  0  0  0  0  0  0  0  0
  1  2  2  0  0  0  0
  1  6  1  0  0  0  0
  1  7  1  0  0  0  0
  2  3  1  0  0  0  0
  2  9  1  0  0  0  0
  3  4  1  0  0  0  0
  3 39  1  0  0  0  0
  4  5  2  0  0  0  0
  4 11  1  0  0  0  0
  5  6  1  0  0  0  0
  6 10  2  0  0  0  0
  7  8  1  0  0  0  0
  8  9  2  0  0  0  0
  8 23  1  0  0  0  0
  9 24  1  0  0  0  0
 11 12  1  0  0  0  0
 11 25  1  0  0  0  0
 11 26  1  0  0  0  0
 12 13  1  0  0  0  0
 12 17  1  0  0  0  0
 12 37  1  6  0  0  0
 13 14  1  0  0  0  0
 13 27  1  0  0  0  0
 13 28  1  0  0  0  0
 14 15  1  0  0  0  0
 14 29  1  0  0  0  0
 14 30  1  0  0  0  0
 15 16  1  0  0  0  0
 15 18  1  0  0  0  0
 15 38  1  1  0  0  0
 16 17  1  0  0  0  0
 16 31  1  0  0  0  0
 16 32  1  0  0  0  0
 17 33  1  0  0  0  0
 17 34  1  0  0  0  0
 18 19  1  0  0  0  0
 18 35  1  0  0  0  0
 18 36  1  0  0  0  0
 19 20  1  0  0  0  0
 19 21  1  0  0  0  0
 19 22  1  0  0  0  0
M  CHG  2  12   1  15   1
M  END
>  <BIOSOLVEIT.HYDE_ESTIMATED_AFFINITY_LOWER_BOUNDARY [nM]>
252239976.908067

>  <BIOSOLVEIT.HYDE_ESTIMATED_AFFINITY_UPPER_BOUNDARY [nM]>
25061533066.588032

>  <BIOSOLVEIT.HYDE_LIGAND_EFFICIENCY range: ++, +, 0, -, -->
--

>  <BIOSOLVEIT.HYDE_LIGAND_LIPOPHILIC_EFFICIENCY range: ++, +, 0, -, -->
--

>  <BIOSOLVEIT.INTER_CLASH range: red, yellow, green>
green

>  <BIOSOLVEIT.INTRA_CLASH range: red, yellow, green>
green

>  <BIOSOLVEIT.LOGP>
-0.942

>  <BIOSOLVEIT.MOLECULAR WEIGHT>
334.363

>  <BIOSOLVEIT.MOLECULE_CHECKSUM>
Mi4yODU1NTsw

>  <BIOSOLVEIT.TORSION_QUALITY range: red, yellow, green, not rotatable>
green

>  <BIOSOLVEIT.TPSA>
50.34

$$$$
