Z28052960.****
 OpenBabel12172121453D
Hydescorer 1.1.2 b8048283
 34 36  0  0  0  0  0  0  0  0999 V2000
   -4.5404  -15.8747   -9.6769 C   0  0  0  0  0  0  0  0  0  0  0  0
   -3.3563  -16.0708   -8.9668 C   0  0  0  0  0  0  0  0  0  0  0  0
   -2.1809  -16.2545   -9.6968 C   0  0  0  0  0  0  0  0  0  0  0  0
   -2.2090  -16.2527  -11.0925 C   0  0  0  0  0  0  0  0  0  0  0  0
   -3.4098  -16.0645  -11.7764 C   0  0  0  0  0  0  0  0  0  0  0  0
   -4.5889  -15.8719  -11.0648 C   0  0  0  0  0  0  0  0  0  0  0  0
   -3.3231  -16.0694   -7.4446 C   0  0  0  0  0  0  0  0  0  0  0  0
   -3.2580  -14.6216   -7.0093 C   0  0  0  0  0  0  0  0  0  0  0  0
   -3.2832  -14.3735   -5.6592 N   0  0  0  0  0  0  0  0  0  0  0  0
   -3.2158  -13.7080   -7.8081 O   0  0  0  0  0  0  0  0  0  0  0  0
   -3.2337  -13.1120   -5.0255 C   0  0  0  0  0  0  0  0  0  0  0  0
   -4.3947  -12.4327   -4.6507 C   0  0  0  0  0  0  0  0  0  0  0  0
   -4.2606  -11.1925   -4.0314 C   0  0  0  0  0  0  0  0  0  0  0  0
   -3.0087  -10.6137   -3.7980 C   0  0  0  0  0  0  0  0  0  0  0  0
   -1.8647  -11.3032   -4.1918 C   0  0  0  0  0  0  0  0  0  0  0  0
   -1.9734  -12.5507   -4.8049 C   0  0  0  0  0  0  0  0  0  0  0  0
   -5.4441  -10.4935   -3.6186 N   0  0  0  0  0  0  0  0  0  0  0  0
   -6.1714   -9.7184   -4.4065 N   0  0  0  0  0  0  0  0  0  0  0  0
   -7.1329   -9.2694   -3.6509 N   0  0  0  0  0  0  0  0  0  0  0  0
   -7.0156   -9.7628   -2.3858 N   0  0  0  0  0  0  0  0  0  0  0  0
   -5.9743  -10.5079   -2.4055 C   0  0  0  0  0  0  0  0  0  0  0  0
   -5.7011  -15.6639   -8.9988 F   0  0  0  0  0  0  0  0  0  0  0  0
   -1.3136  -16.3881   -9.2173 H   0  0  0  0  0  0  0  0  0  0  0  0
   -1.3615  -16.3875  -11.6060 H   0  0  0  0  0  0  0  0  0  0  0  0
   -3.4228  -16.0680  -12.7763 H   0  0  0  0  0  0  0  0  0  0  0  0
   -5.4558  -15.7339  -11.5437 H   0  0  0  0  0  0  0  0  0  0  0  0
   -2.5176  -16.5636   -7.1176 H   0  0  0  0  0  0  0  0  0  0  0  0
   -4.1490  -16.5011   -7.0820 H   0  0  0  0  0  0  0  0  0  0  0  0
   -3.3428  -15.1718   -5.0599 H   0  0  0  0  0  0  0  0  0  0  0  0
   -5.2980  -12.8260   -4.8223 H   0  0  0  0  0  0  0  0  0  0  0  0
   -2.9366   -9.7197   -3.3559 H   0  0  0  0  0  0  0  0  0  0  0  0
   -0.9622  -10.9023   -4.0342 H   0  0  0  0  0  0  0  0  0  0  0  0
   -1.1500  -13.0433   -5.0866 H   0  0  0  0  0  0  0  0  0  0  0  0
   -5.6168  -11.0213   -1.6253 H   0  0  0  0  0  0  0  0  0  0  0  0
  1  2  2  0  0  0  0
  1  6  1  0  0  0  0
  1 22  1  0  0  0  0
  2  3  1  0  0  0  0
  2  7  1  0  0  0  0
  3  4  2  0  0  0  0
  3 23  1  0  0  0  0
  4  5  1  0  0  0  0
  4 24  1  0  0  0  0
  5  6  2  0  0  0  0
  5 25  1  0  0  0  0
  6 26  1  0  0  0  0
  7  8  1  0  0  0  0
  7 27  1  0  0  0  0
  7 28  1  0  0  0  0
  8  9  1  0  0  0  0
  8 10  2  0  0  0  0
  9 11  1  0  0  0  0
  9 29  1  0  0  0  0
 11 12  2  0  0  0  0
 11 16  1  0  0  0  0
 12 13  1  0  0  0  0
 12 30  1  0  0  0  0
 13 14  2  0  0  0  0
 13 17  1  0  0  0  0
 14 15  1  0  0  0  0
 14 31  1  0  0  0  0
 15 16  2  0  0  0  0
 15 32  1  0  0  0  0
 16 33  1  0  0  0  0
 17 18  1  0  0  0  0
 17 21  1  0  0  0  0
 18 19  2  0  0  0  0
 19 20  1  0  0  0  0
 20 21  2  0  0  0  0
 21 34  1  0  0  0  0
M  END
>  <BIOSOLVEIT.HYDE_ESTIMATED_AFFINITY_LOWER_BOUNDARY [nM]>
4632133674.607182

>  <BIOSOLVEIT.HYDE_ESTIMATED_AFFINITY_UPPER_BOUNDARY [nM]>
460229867913.974487

>  <BIOSOLVEIT.HYDE_LIGAND_EFFICIENCY range: ++, +, 0, -, -->
--

>  <BIOSOLVEIT.HYDE_LIGAND_LIPOPHILIC_EFFICIENCY range: ++, +, 0, -, -->
--

>  <BIOSOLVEIT.INTER_CLASH range: red, yellow, green>
green

>  <BIOSOLVEIT.INTRA_CLASH range: red, yellow, green>
green

>  <BIOSOLVEIT.LOGP>
1.9826

>  <BIOSOLVEIT.MOLECULAR WEIGHT>
297.292

>  <BIOSOLVEIT.MOLECULE_CHECKSUM>
OS41MDAyODsw

>  <BIOSOLVEIT.TORSION_QUALITY range: red, yellow, green, not rotatable>
red

>  <BIOSOLVEIT.TPSA>
72.7

$$$$
