Z27065878.****
 OpenBabel12172121453D
Hydescorer 1.1.2 b8048283
 38 39  0  0  0  0  0  0  0  0999 V2000
   -1.0518  -15.3682    2.9614 C   0  0  0  0  0  0  0  0  0  0  0  0
   -1.9597  -16.3472    2.5684 C   0  0  0  0  0  0  0  0  0  0  0  0
   -3.2930  -16.0211    2.3178 C   0  0  0  0  0  0  0  0  0  0  0  0
   -3.6996  -14.6855    2.4702 C   0  0  0  0  0  0  0  0  0  0  0  0
   -2.7946  -13.6959    2.8590 C   0  0  0  0  0  0  0  0  0  0  0  0
   -1.4693  -14.0448    3.1063 C   0  0  0  0  0  0  0  0  0  0  0  0
   -0.3291  -12.8325    3.5875 Cl  0  0  0  0  0  0  0  0  0  0  0  0
   -4.2654  -17.1104    1.8979 C   0  0  0  0  0  0  0  0  0  0  0  0
   -5.0508  -14.3603    2.1846 N   0  0  0  0  0  0  0  0  0  0  0  0
   -6.0849  -14.2342    3.0739 C   0  0  0  0  0  0  0  0  0  0  0  0
   -7.4333  -13.8766    2.4907 C   0  0  0  0  0  0  0  0  0  0  0  0
   -5.9262  -14.4430    4.2572 O   0  0  0  0  0  0  0  0  0  0  0  0
   -7.9829  -15.1576    1.8182 C   0  0  0  0  0  0  0  0  0  0  0  0
   -9.4099  -14.8624    1.3251 C   0  0  0  0  0  0  0  0  0  0  0  0
  -10.3334  -14.2212    2.3639 C   0  0  0  0  0  0  0  0  0  0  0  0
  -11.4515  -13.5724    1.5413 C   0  0  0  0  0  0  0  0  0  0  0  0
  -10.8855  -13.3875    0.1290 C   0  0  0  0  0  0  0  0  0  0  0  0
   -9.4187  -13.8103    0.2176 C   0  0  0  0  0  0  0  0  0  0  0  0
   -0.0990  -15.6136    3.1401 H   0  0  0  0  0  0  0  0  0  0  0  0
   -1.6535  -17.2935    2.4648 H   0  0  0  0  0  0  0  0  0  0  0  0
   -3.0947  -12.7472    2.9588 H   0  0  0  0  0  0  0  0  0  0  0  0
   -5.1721  -16.7123    1.7590 H   0  0  0  0  0  0  0  0  0  0  0  0
   -3.9504  -17.5280    1.0456 H   0  0  0  0  0  0  0  0  0  0  0  0
   -4.3135  -17.8080    2.6128 H   0  0  0  0  0  0  0  0  0  0  0  0
   -5.2741  -14.2052    1.2223 H   0  0  0  0  0  0  0  0  0  0  0  0
   -7.3332  -13.1479    1.8133 H   0  0  0  0  0  0  0  0  0  0  0  0
   -8.0529  -13.5751    3.2154 H   0  0  0  0  0  0  0  0  0  0  0  0
   -8.0011  -15.9070    2.4801 H   0  0  0  0  0  0  0  0  0  0  0  0
   -7.4021  -15.4103    1.0444 H   0  0  0  0  0  0  0  0  0  0  0  0
   -9.8259  -15.7061    0.9858 H   0  0  0  0  0  0  0  0  0  0  0  0
   -9.8413  -13.5320    2.8958 H   0  0  0  0  0  0  0  0  0  0  0  0
  -10.7060  -14.9147    2.9805 H   0  0  0  0  0  0  0  0  0  0  0  0
  -11.7024  -12.6874    1.9335 H   0  0  0  0  0  0  0  0  0  0  0  0
  -12.2554  -14.1668    1.5183 H   0  0  0  0  0  0  0  0  0  0  0  0
  -10.9570  -12.4310   -0.1536 H   0  0  0  0  0  0  0  0  0  0  0  0
  -11.3769  -13.9652   -0.5228 H   0  0  0  0  0  0  0  0  0  0  0  0
   -9.1077  -14.2019   -0.6484 H   0  0  0  0  0  0  0  0  0  0  0  0
   -8.8378  -13.0331    0.4597 H   0  0  0  0  0  0  0  0  0  0  0  0
  1  2  2  0  0  0  0
  1  6  1  0  0  0  0
  1 19  1  0  0  0  0
  2  3  1  0  0  0  0
  2 20  1  0  0  0  0
  3  4  2  0  0  0  0
  3  8  1  0  0  0  0
  4  5  1  0  0  0  0
  4  9  1  0  0  0  0
  5  6  2  0  0  0  0
  5 21  1  0  0  0  0
  6  7  1  0  0  0  0
  8 22  1  0  0  0  0
  8 23  1  0  0  0  0
  8 24  1  0  0  0  0
  9 10  1  0  0  0  0
  9 25  1  0  0  0  0
 10 11  1  0  0  0  0
 10 12  2  0  0  0  0
 11 13  1  0  0  0  0
 11 26  1  0  0  0  0
 11 27  1  0  0  0  0
 13 14  1  0  0  0  0
 13 28  1  0  0  0  0
 13 29  1  0  0  0  0
 14 15  1  0  0  0  0
 14 18  1  0  0  0  0
 14 30  1  0  0  0  0
 15 16  1  0  0  0  0
 15 31  1  0  0  0  0
 15 32  1  0  0  0  0
 16 17  1  0  0  0  0
 16 33  1  0  0  0  0
 16 34  1  0  0  0  0
 17 18  1  0  0  0  0
 17 35  1  0  0  0  0
 17 36  1  0  0  0  0
 18 37  1  0  0  0  0
 18 38  1  0  0  0  0
M  END
>  <BIOSOLVEIT.HYDE_ESTIMATED_AFFINITY_LOWER_BOUNDARY [nM]>
302149855.520862

>  <BIOSOLVEIT.HYDE_ESTIMATED_AFFINITY_UPPER_BOUNDARY [nM]>
30020374597.325348

>  <BIOSOLVEIT.HYDE_LIGAND_EFFICIENCY range: ++, +, 0, -, -->
--

>  <BIOSOLVEIT.HYDE_LIGAND_LIPOPHILIC_EFFICIENCY range: ++, +, 0, -, -->
--

>  <BIOSOLVEIT.INTER_CLASH range: red, yellow, green>
green

>  <BIOSOLVEIT.INTRA_CLASH range: red, yellow, green>
green

>  <BIOSOLVEIT.LOGP>
4.55732

>  <BIOSOLVEIT.MOLECULAR WEIGHT>
265.782

>  <BIOSOLVEIT.MOLECULE_CHECKSUM>
Mi43MzMxOzA=

>  <BIOSOLVEIT.TORSION_QUALITY range: red, yellow, green, not rotatable>
yellow

>  <BIOSOLVEIT.TPSA>
29.1

$$$$
