Z1203922336.****
 OpenBabel12172121453D
Hydescorer 1.1.2 b8048283
 41 42  0  0  0  0  0  0  0  0999 V2000
    0.4871  -18.8026    2.7620 C   0  0  0  0  0  0  0  0  0  0  0  0
   -0.4695  -18.9665    3.7600 C   0  0  0  0  0  0  0  0  0  0  0  0
   -1.5027  -18.0415    3.9147 C   0  0  0  0  0  0  0  0  0  0  0  0
   -1.5581  -16.9432    3.0408 C   0  0  0  0  0  0  0  0  0  0  0  0
   -0.6068  -16.7732    2.0341 C   0  0  0  0  0  0  0  0  0  0  0  0
    0.4170  -17.7067    1.9003 C   0  0  0  0  0  0  0  0  0  0  0  0
    1.6077  -17.5164    0.6565 Cl  0  0  0  0  0  0  0  0  0  0  0  0
   -2.5292  -18.2411    5.0166 C   0  0  0  0  0  0  0  0  0  0  0  0
   -2.6305  -16.0253    3.1863 N   0  0  0  0  0  0  0  0  0  0  0  0
   -3.8125  -16.0078    2.4906 C   0  0  0  0  0  0  0  0  0  0  0  0
   -4.7919  -14.8950    2.8599 C   0  0  1  0  0  0  0  0  0  0  0  0
   -4.0193  -16.8079    1.6009 O   0  0  0  0  0  0  0  0  0  0  0  0
   -5.1995  -15.1184    4.3427 C   0  0  0  0  0  0  0  0  0  0  0  0
   -4.0762  -13.5301    2.7009 C   0  0  0  0  0  0  0  0  0  0  0  0
   -6.4048  -14.2326    4.7195 C   0  0  0  0  0  0  0  0  0  0  0  0
   -7.5759  -14.2684    3.7330 C   0  0  0  0  0  0  0  0  0  0  0  0
   -8.7898  -13.8004    4.5428 C   0  0  0  0  0  0  0  0  0  0  0  0
   -8.4110  -13.9812    6.0174 C   0  0  0  0  0  0  0  0  0  0  0  0
   -7.0744  -14.7207    6.0037 C   0  0  0  0  0  0  0  0  0  0  0  0
    1.2249  -19.4702    2.6625 H   0  0  0  0  0  0  0  0  0  0  0  0
   -0.4157  -19.7552    4.3723 H   0  0  0  0  0  0  0  0  0  0  0  0
   -0.6600  -15.9893    1.4156 H   0  0  0  0  0  0  0  0  0  0  0  0
   -3.1955  -17.4959    4.9903 H   0  0  0  0  0  0  0  0  0  0  0  0
   -2.9990  -19.1132    4.8804 H   0  0  0  0  0  0  0  0  0  0  0  0
   -2.0688  -18.2455    5.9042 H   0  0  0  0  0  0  0  0  0  0  0  0
   -2.5108  -15.3098    3.8746 H   0  0  0  0  0  0  0  0  0  0  0  0
   -5.5983  -14.9337    2.2697 H   0  0  0  0  0  0  0  0  0  0  0  0
   -4.4262  -14.8882    4.9334 H   0  0  0  0  0  0  0  0  0  0  0  0
   -5.4450  -16.0789    4.4739 H   0  0  0  0  0  0  0  0  0  0  0  0
   -4.7079  -12.7927    2.9401 H   0  0  0  0  0  0  0  0  0  0  0  0
   -3.2815  -13.4978    3.3070 H   0  0  0  0  0  0  0  0  0  0  0  0
   -3.7774  -13.4188    1.7531 H   0  0  0  0  0  0  0  0  0  0  0  0
   -6.0996  -13.2880    4.8407 H   0  0  0  0  0  0  0  0  0  0  0  0
   -7.7186  -15.1969    3.3902 H   0  0  0  0  0  0  0  0  0  0  0  0
   -7.4071  -13.6515    2.9642 H   0  0  0  0  0  0  0  0  0  0  0  0
   -9.5911  -14.3554    4.3194 H   0  0  0  0  0  0  0  0  0  0  0  0
   -8.9860  -12.8389    4.3500 H   0  0  0  0  0  0  0  0  0  0  0  0
   -9.1050  -14.5214    6.4933 H   0  0  0  0  0  0  0  0  0  0  0  0
   -8.3148  -13.0925    6.4656 H   0  0  0  0  0  0  0  0  0  0  0  0
   -6.5261  -14.4815    6.8051 H   0  0  0  0  0  0  0  0  0  0  0  0
   -7.2145  -15.7105    5.9791 H   0  0  0  0  0  0  0  0  0  0  0  0
  1  2  2  0  0  0  0
  1  6  1  0  0  0  0
  1 20  1  0  0  0  0
  2  3  1  0  0  0  0
  2 21  1  0  0  0  0
  3  4  2  0  0  0  0
  3  8  1  0  0  0  0
  4  5  1  0  0  0  0
  4  9  1  0  0  0  0
  5  6  2  0  0  0  0
  5 22  1  0  0  0  0
  6  7  1  0  0  0  0
  8 23  1  0  0  0  0
  8 24  1  0  0  0  0
  8 25  1  0  0  0  0
  9 10  1  0  0  0  0
  9 26  1  0  0  0  0
 10 11  1  0  0  0  0
 10 12  2  0  0  0  0
 11 13  1  0  0  0  0
 11 14  1  0  0  0  0
 11 27  1  6  0  0  0
 13 15  1  0  0  0  0
 13 28  1  0  0  0  0
 13 29  1  0  0  0  0
 14 30  1  0  0  0  0
 14 31  1  0  0  0  0
 14 32  1  0  0  0  0
 15 16  1  0  0  0  0
 15 19  1  0  0  0  0
 15 33  1  0  0  0  0
 16 17  1  0  0  0  0
 16 34  1  0  0  0  0
 16 35  1  0  0  0  0
 17 18  1  0  0  0  0
 17 36  1  0  0  0  0
 17 37  1  0  0  0  0
 18 19  1  0  0  0  0
 18 38  1  0  0  0  0
 18 39  1  0  0  0  0
 19 40  1  0  0  0  0
 19 41  1  0  0  0  0
M  END
>  <BIOSOLVEIT.HYDE_ESTIMATED_AFFINITY_LOWER_BOUNDARY [nM]>
134049636401.540283

>  <BIOSOLVEIT.HYDE_ESTIMATED_AFFINITY_UPPER_BOUNDARY [nM]>
13318623940667.876953

>  <BIOSOLVEIT.HYDE_LIGAND_EFFICIENCY range: ++, +, 0, -, -->
--

>  <BIOSOLVEIT.HYDE_LIGAND_LIPOPHILIC_EFFICIENCY range: ++, +, 0, -, -->
--

>  <BIOSOLVEIT.INTER_CLASH range: red, yellow, green>
green

>  <BIOSOLVEIT.INTRA_CLASH range: red, yellow, green>
green

>  <BIOSOLVEIT.LOGP>
4.80332

>  <BIOSOLVEIT.MOLECULAR WEIGHT>
279.809

>  <BIOSOLVEIT.MOLECULE_CHECKSUM>
MTcuODQyNTsw

>  <BIOSOLVEIT.TORSION_QUALITY range: red, yellow, green, not rotatable>
yellow

>  <BIOSOLVEIT.TPSA>
29.1

$$$$
