Z28052960.****
 OpenBabel12172121453D
Hydescorer 1.1.2 b8048283
 34 36  0  0  0  0  0  0  0  0999 V2000
   -8.3644  -14.8064    2.5939 C   0  0  0  0  0  0  0  0  0  0  0  0
   -9.7182  -14.4957    2.4698 C   0  0  0  0  0  0  0  0  0  0  0  0
  -10.3171  -13.7678    3.4993 C   0  0  0  0  0  0  0  0  0  0  0  0
   -9.5741  -13.3824    4.6164 C   0  0  0  0  0  0  0  0  0  0  0  0
   -8.2239  -13.7160    4.7184 C   0  0  0  0  0  0  0  0  0  0  0  0
   -7.6092  -14.4339    3.6983 C   0  0  0  0  0  0  0  0  0  0  0  0
  -10.5294  -14.9120    1.2505 C   0  0  0  0  0  0  0  0  0  0  0  0
  -10.0309  -14.0809    0.0884 C   0  0  0  0  0  0  0  0  0  0  0  0
  -10.4842  -12.7875    0.0056 N   0  0  0  0  0  0  0  0  0  0  0  0
   -9.2868  -14.5337   -0.7578 O   0  0  0  0  0  0  0  0  0  0  0  0
  -10.1574  -11.8338   -0.9838 C   0  0  0  0  0  0  0  0  0  0  0  0
   -8.8597  -11.7105   -1.4846 C   0  0  0  0  0  0  0  0  0  0  0  0
   -8.6191  -10.7443   -2.4583 C   0  0  0  0  0  0  0  0  0  0  0  0
   -9.6289   -9.8957   -2.9239 C   0  0  0  0  0  0  0  0  0  0  0  0
  -10.9129  -10.0277   -2.4011 C   0  0  0  0  0  0  0  0  0  0  0  0
  -11.1802  -10.9942   -1.4323 C   0  0  0  0  0  0  0  0  0  0  0  0
   -7.2957  -10.6224   -3.0000 N   0  0  0  0  0  0  0  0  0  0  0  0
   -6.1832  -10.6970   -2.2877 N   0  0  0  0  0  0  0  0  0  0  0  0
   -5.2171  -10.5217   -3.1438 N   0  0  0  0  0  0  0  0  0  0  0  0
   -5.7181  -10.3390   -4.3980 N   0  0  0  0  0  0  0  0  0  0  0  0
   -6.9905  -10.4095   -4.2706 C   0  0  0  0  0  0  0  0  0  0  0  0
   -7.7399  -15.4901    1.5968 F   0  0  0  0  0  0  0  0  0  0  0  0
  -11.2841  -13.5209    3.4362 H   0  0  0  0  0  0  0  0  0  0  0  0
  -10.0134  -12.8630    5.3493 H   0  0  0  0  0  0  0  0  0  0  0  0
   -7.6988  -13.4395    5.5233 H   0  0  0  0  0  0  0  0  0  0  0  0
   -6.6412  -14.6775    3.7588 H   0  0  0  0  0  0  0  0  0  0  0  0
  -11.5012  -14.7365    1.4074 H   0  0  0  0  0  0  0  0  0  0  0  0
  -10.3925  -15.8845    1.0618 H   0  0  0  0  0  0  0  0  0  0  0  0
  -11.1135  -12.4885    0.7229 H   0  0  0  0  0  0  0  0  0  0  0  0
   -8.1231  -12.3001   -1.1530 H   0  0  0  0  0  0  0  0  0  0  0  0
   -9.4321   -9.2058   -3.6205 H   0  0  0  0  0  0  0  0  0  0  0  0
  -11.6456   -9.4273   -2.7216 H   0  0  0  0  0  0  0  0  0  0  0  0
  -12.1033  -11.0864   -1.0588 H   0  0  0  0  0  0  0  0  0  0  0  0
   -7.6512  -10.3180   -5.0156 H   0  0  0  0  0  0  0  0  0  0  0  0
  1  2  2  0  0  0  0
  1  6  1  0  0  0  0
  1 22  1  0  0  0  0
  2  3  1  0  0  0  0
  2  7  1  0  0  0  0
  3  4  2  0  0  0  0
  3 23  1  0  0  0  0
  4  5  1  0  0  0  0
  4 24  1  0  0  0  0
  5  6  2  0  0  0  0
  5 25  1  0  0  0  0
  6 26  1  0  0  0  0
  7  8  1  0  0  0  0
  7 27  1  0  0  0  0
  7 28  1  0  0  0  0
  8  9  1  0  0  0  0
  8 10  2  0  0  0  0
  9 11  1  0  0  0  0
  9 29  1  0  0  0  0
 11 12  2  0  0  0  0
 11 16  1  0  0  0  0
 12 13  1  0  0  0  0
 12 30  1  0  0  0  0
 13 14  2  0  0  0  0
 13 17  1  0  0  0  0
 14 15  1  0  0  0  0
 14 31  1  0  0  0  0
 15 16  2  0  0  0  0
 15 32  1  0  0  0  0
 16 33  1  0  0  0  0
 17 18  1  0  0  0  0
 17 21  1  0  0  0  0
 18 19  2  0  0  0  0
 19 20  1  0  0  0  0
 20 21  2  0  0  0  0
 21 34  1  0  0  0  0
M  END
>  <BIOSOLVEIT.HYDE_ESTIMATED_AFFINITY_LOWER_BOUNDARY [nM]>
66050516.401204

>  <BIOSOLVEIT.HYDE_ESTIMATED_AFFINITY_UPPER_BOUNDARY [nM]>
6562509326.018898

>  <BIOSOLVEIT.HYDE_LIGAND_EFFICIENCY range: ++, +, 0, -, -->
--

>  <BIOSOLVEIT.HYDE_LIGAND_LIPOPHILIC_EFFICIENCY range: ++, +, 0, -, -->
--

>  <BIOSOLVEIT.INTER_CLASH range: red, yellow, green>
green

>  <BIOSOLVEIT.INTRA_CLASH range: red, yellow, green>
green

>  <BIOSOLVEIT.LOGP>
1.9826

>  <BIOSOLVEIT.MOLECULAR WEIGHT>
297.292

>  <BIOSOLVEIT.MOLECULE_CHECKSUM>
LTEuMDM2MTY7MC4wNDcwOTgx

>  <BIOSOLVEIT.TORSION_QUALITY range: red, yellow, green, not rotatable>
yellow

>  <BIOSOLVEIT.TPSA>
72.7

$$$$
