PV-001799426713.****
 OpenBabel12172121453D
Hydescorer 1.1.2 b8048283
 56 59  0  0  0  0  0  0  0  0999 V2000
   -5.2859  -12.6876    2.6907 C   0  0  0  0  0  0  0  0  0  0  0  0
   -6.6179  -13.0830    2.6764 C   0  0  0  0  0  0  0  0  0  0  0  0
   -7.1494  -13.8678    3.7140 C   0  0  0  0  0  0  0  0  0  0  0  0
   -6.2996  -14.2596    4.7667 C   0  0  0  0  0  0  0  0  0  0  0  0
   -4.9675  -13.8640    4.7871 C   0  0  0  0  0  0  0  0  0  0  0  0
   -4.4697  -13.0742    3.7550 C   0  0  0  0  0  0  0  0  0  0  0  0
   -3.1441  -12.7091    3.8098 O   0  0  0  0  0  0  0  0  0  0  0  0
   -2.1855  -13.3326    4.5828 C   0  0  0  0  0  0  0  0  0  0  0  0
   -1.4437  -12.5500    5.4630 C   0  0  0  0  0  0  0  0  0  0  0  0
   -0.4684  -13.1519    6.2527 C   0  0  0  0  0  0  0  0  0  0  0  0
   -0.2378  -14.5238    6.1529 C   0  0  0  0  0  0  0  0  0  0  0  0
   -0.9779  -15.2982    5.2610 C   0  0  0  0  0  0  0  0  0  0  0  0
   -1.9556  -14.7041    4.4676 C   0  0  0  0  0  0  0  0  0  0  0  0
   -8.5634  -14.2602    3.6727 C   0  0  0  0  0  0  0  0  0  0  0  0
   -9.5174  -13.3627    3.2595 N   0  0  0  0  0  0  0  0  0  0  0  0
   -8.9629  -15.3735    3.9879 O   0  0  0  0  0  0  0  0  0  0  0  0
  -10.9559  -13.7186    3.2032 C   0  0  1  0  0  0  0  0  0  0  0  0
  -11.7998  -12.5211    2.7223 C   0  0  0  0  0  0  0  0  0  0  0  0
  -11.4321  -12.4919    1.3053 N   0  3  1  0  0  0  0  0  0  0  0  0
  -11.5984  -13.8770    0.8511 C   0  0  0  0  0  0  0  0  0  0  0  0
  -11.1227  -14.7180    2.0516 C   0  0  0  0  0  0  0  0  0  0  0  0
  -12.3308  -11.5799    0.5754 C   0  0  0  0  0  0  0  0  0  0  0  0
  -11.8140  -11.5471   -0.8764 C   0  0  0  0  0  0  0  0  0  0  0  0
  -12.7973  -12.1824   -1.8686 C   0  0  0  0  0  0  0  0  0  0  0  0
  -12.4281  -11.5529   -3.2137 C   0  0  0  0  0  0  0  0  0  0  0  0
  -11.7038  -10.2421   -2.8880 C   0  0  0  0  0  0  0  0  0  0  0  0
  -11.7662  -10.0988   -1.3671 C   0  0  0  0  0  0  0  0  0  0  0  0
   -4.9159  -12.1319    1.9462 H   0  0  0  0  0  0  0  0  0  0  0  0
   -7.2065  -12.8051    1.9173 H   0  0  0  0  0  0  0  0  0  0  0  0
   -6.6584  -14.8282    5.5069 H   0  0  0  0  0  0  0  0  0  0  0  0
   -4.3706  -14.1451    5.5386 H   0  0  0  0  0  0  0  0  0  0  0  0
   -1.6096  -11.5660    5.5273 H   0  0  0  0  0  0  0  0  0  0  0  0
    0.0674  -12.6004    6.8921 H   0  0  0  0  0  0  0  0  0  0  0  0
    0.4616  -14.9538    6.7238 H   0  0  0  0  0  0  0  0  0  0  0  0
   -0.8066  -16.2810    5.1910 H   0  0  0  0  0  0  0  0  0  0  0  0
   -2.4868  -15.2537    3.8228 H   0  0  0  0  0  0  0  0  0  0  0  0
   -9.2338  -12.4428    2.9888 H   0  0  0  0  0  0  0  0  0  0  0  0
  -11.2865  -14.0871    4.0720 H   0  0  0  0  0  0  0  0  0  0  0  0
  -11.5410  -11.6753    3.1890 H   0  0  0  0  0  0  0  0  0  0  0  0
  -12.7784  -12.6846    2.8471 H   0  0  0  0  0  0  0  0  0  0  0  0
  -11.0355  -14.0574    0.0445 H   0  0  0  0  0  0  0  0  0  0  0  0
  -12.5565  -14.0696    0.6387 H   0  0  0  0  0  0  0  0  0  0  0  0
  -11.8039  -15.4117    2.2854 H   0  0  0  0  0  0  0  0  0  0  0  0
  -10.2514  -15.1629    1.8445 H   0  0  0  0  0  0  0  0  0  0  0  0
  -12.2980  -10.6646    0.9768 H   0  0  0  0  0  0  0  0  0  0  0  0
  -13.2701  -11.9221    0.6024 H   0  0  0  0  0  0  0  0  0  0  0  0
  -10.9131  -11.9760   -0.9436 H   0  0  0  0  0  0  0  0  0  0  0  0
  -13.7414  -11.9644   -1.6217 H   0  0  0  0  0  0  0  0  0  0  0  0
  -12.6810  -13.1752   -1.8973 H   0  0  0  0  0  0  0  0  0  0  0  0
  -13.2528  -11.3695   -3.7486 H   0  0  0  0  0  0  0  0  0  0  0  0
  -11.8257  -12.1631   -3.7284 H   0  0  0  0  0  0  0  0  0  0  0  0
  -12.1631   -9.4713   -3.3295 H   0  0  0  0  0  0  0  0  0  0  0  0
  -10.7530  -10.2839   -3.1951 H   0  0  0  0  0  0  0  0  0  0  0  0
  -10.9551   -9.6294   -1.0183 H   0  0  0  0  0  0  0  0  0  0  0  0
  -12.5863   -9.5993   -1.0882 H   0  0  0  0  0  0  0  0  0  0  0  0
  -10.4809  -12.2024    1.1984 H   0  0  0  0  0  0  0  0  0  0  0  0
  1  2  2  0  0  0  0
  1  6  1  0  0  0  0
  1 28  1  0  0  0  0
  2  3  1  0  0  0  0
  2 29  1  0  0  0  0
  3  4  2  0  0  0  0
  3 14  1  0  0  0  0
  4  5  1  0  0  0  0
  4 30  1  0  0  0  0
  5  6  2  0  0  0  0
  5 31  1  0  0  0  0
  6  7  1  0  0  0  0
  7  8  1  0  0  0  0
  8  9  2  0  0  0  0
  8 13  1  0  0  0  0
  9 10  1  0  0  0  0
  9 32  1  0  0  0  0
 10 11  2  0  0  0  0
 10 33  1  0  0  0  0
 11 12  1  0  0  0  0
 11 34  1  0  0  0  0
 12 13  2  0  0  0  0
 12 35  1  0  0  0  0
 13 36  1  0  0  0  0
 14 15  1  0  0  0  0
 14 16  2  0  0  0  0
 15 17  1  0  0  0  0
 15 37  1  0  0  0  0
 17 18  1  0  0  0  0
 17 21  1  0  0  0  0
 17 38  1  1  0  0  0
 18 19  1  0  0  0  0
 18 39  1  0  0  0  0
 18 40  1  0  0  0  0
 19 20  1  0  0  0  0
 19 22  1  0  0  0  0
 19 56  1  6  0  0  0
 20 21  1  0  0  0  0
 20 41  1  0  0  0  0
 20 42  1  0  0  0  0
 21 43  1  0  0  0  0
 21 44  1  0  0  0  0
 22 23  1  0  0  0  0
 22 45  1  0  0  0  0
 22 46  1  0  0  0  0
 23 24  1  0  0  0  0
 23 27  1  0  0  0  0
 23 47  1  0  0  0  0
 24 25  1  0  0  0  0
 24 48  1  0  0  0  0
 24 49  1  0  0  0  0
 25 26  1  0  0  0  0
 25 50  1  0  0  0  0
 25 51  1  0  0  0  0
 26 27  1  0  0  0  0
 26 52  1  0  0  0  0
 26 53  1  0  0  0  0
 27 54  1  0  0  0  0
 27 55  1  0  0  0  0
M  CHG  1  19   1
M  END
>  <BIOSOLVEIT.HYDE_ESTIMATED_AFFINITY_LOWER_BOUNDARY [nM]>
369291400.982781

>  <BIOSOLVEIT.HYDE_ESTIMATED_AFFINITY_UPPER_BOUNDARY [nM]>
36691284111.200653

>  <BIOSOLVEIT.HYDE_LIGAND_EFFICIENCY range: ++, +, 0, -, -->
--

>  <BIOSOLVEIT.HYDE_LIGAND_LIPOPHILIC_EFFICIENCY range: ++, +, 0, -, -->
--

>  <BIOSOLVEIT.INTER_CLASH range: red, yellow, green>
green

>  <BIOSOLVEIT.INTRA_CLASH range: red, yellow, green>
green

>  <BIOSOLVEIT.LOGP>
3.0561

>  <BIOSOLVEIT.MOLECULAR WEIGHT>
365.494

>  <BIOSOLVEIT.MOLECULE_CHECKSUM>
My4yMzA1NDsw

>  <BIOSOLVEIT.TORSION_QUALITY range: red, yellow, green, not rotatable>
yellow

>  <BIOSOLVEIT.TPSA>
42.77

$$$$
